obj01
  PyMOL2.2          3D                             0

 95100  0  0  0  0  0  0  0  0999 V2000
    4.3874   -5.0965   15.8435 C   0  0  0  0  0  0  0  0  0  0  0  0
    2.9623   -5.1808   16.3921 N   0  0  0  0  0  0  0  0  0  0  0  0
    6.6347   -3.6884   14.5507 O   0  0  0  0  0  0  0  0  0  0  0  0
    5.2304   -3.9722   16.4141 C   0  0  0  0  0  0  0  0  0  0  0  0
    7.5619   -4.5775   16.4639 N   0  0  0  0  0  0  0  0  0  0  0  0
    4.9844    0.6460   16.5557 O   0  0  0  0  0  0  0  0  0  0  0  0
    6.5345   -4.0754   15.7407 C   0  0  0  0  0  0  0  0  0  0  0  0
    4.3715   -2.7110   16.1148 N   0  0  0  0  0  0  0  0  0  0  0  0
    4.7345   -0.4059   12.1277 O   0  0  0  0  0  0  0  0  0  0  0  0
    8.9692   -4.7879   16.1148 C   0  0  0  0  0  0  0  0  0  0  0  0
    4.6076    1.8804   12.2006 N   0  0  0  0  0  0  0  0  0  0  0  0
    3.7051    4.4187   11.6968 O   0  0  0  0  0  0  0  0  0  0  0  0
    9.6951   -5.4249   17.3208 C   0  0  0  0  0  0  0  0  0  0  0  0
    4.3814  -11.5465   16.7682 O   0  0  0  0  0  0  0  0  0  0  0  0
    9.6505   -3.5902   15.8894 C   0  0  0  0  0  0  0  0  0  0  0  0
    4.6720  -10.7606   14.7362 O   0  0  0  0  0  0  0  0  0  0  0  0
    9.1943   -5.6839   14.9427 C   0  0  0  0  0  0  0  0  0  0  0  0
    2.9524   -2.7001   16.5816 C   0  0  0  0  0  0  0  0  0  0  0  0
    2.2849   -3.9613   16.0490 C   0  0  0  0  0  0  0  0  0  0  0  0
    4.9924   -1.4666   16.6435 C   0  0  0  0  0  0  0  0  0  0  0  0
    4.9894   -0.4009   15.6131 C   0  0  0  0  0  0  0  0  0  0  0  0
    6.2082   -0.1429   14.7582 C   0  0  0  0  0  0  0  0  0  0  0  0
    6.1953    0.9606   13.7018 C   0  0  0  0  0  0  0  0  0  0  0  0
    7.6125    1.0181   12.9547 C   0  0  0  0  0  0  0  0  0  0  0  0
    7.6442    2.1176   11.8824 C   0  0  0  0  0  0  0  0  0  0  0  0
    7.5014    3.5485   12.2385 C   0  0  0  0  0  0  0  0  0  0  0  0
    7.5232    4.5458   11.1951 C   0  0  0  0  0  0  0  0  0  0  0  0
    7.6889    4.1191    9.7866 C   0  0  0  0  0  0  0  0  0  0  0  0
    7.8297    2.6971    9.4504 C   0  0  0  0  0  0  0  0  0  0  0  0
    7.8069    1.7157   10.4918 C   0  0  0  0  0  0  0  0  0  0  0  0
    5.0935    0.7363   12.5956 C   0  0  0  0  0  0  0  0  0  0  0  0
    3.6029    2.0590   11.1831 C   0  0  0  0  0  0  0  0  0  0  0  0
    3.5692    3.4721   10.6504 C   0  0  0  0  0  0  0  0  0  0  0  0
    2.2830    3.5505    9.8963 C   0  0  0  0  0  0  0  0  0  0  0  0
    1.2446    2.8231   10.6913 C   0  0  0  0  0  0  0  0  0  0  0  0
   -0.1388    2.8172   10.8320 C   0  0  0  0  0  0  0  0  0  0  0  0
   -0.7180    1.8903   11.7756 C   0  0  0  0  0  0  0  0  0  0  0  0
    0.1081    0.9764   12.5676 C   0  0  0  0  0  0  0  0  0  0  0  0
    1.5054    0.9725   12.4340 C   0  0  0  0  0  0  0  0  0  0  0  0
    2.1491    1.8338   11.5472 C   0  0  0  0  0  0  0  0  0  0  0  0
    2.2185   -6.3081   15.8225 C   0  0  0  0  0  0  0  0  0  0  0  0
    2.7620   -7.6894   16.1298 C   0  0  0  0  0  0  0  0  0  0  0  0
    2.6053   -8.2818   17.4535 C   0  0  0  0  0  0  0  0  0  0  0  0
    3.7924  -10.2833   16.7193 C   0  0  0  0  0  0  0  0  0  0  0  0
    3.9858   -9.7653   15.4036 C   0  0  0  0  0  0  0  0  0  0  0  0
    3.4562   -8.4425   15.0943 C   0  0  0  0  0  0  0  0  0  0  0  0
    3.1081   -9.5996   17.8285 C   0  0  0  0  0  0  0  0  0  0  0  0
    5.0082  -11.9980   15.5103 C   0  0  0  0  0  0  0  0  0  0  0  0
    4.8804   -6.0237   16.1355 H   0  0  0  0  0  0  0  0  0  0  0  0
    4.3269   -4.9597   14.7638 H   0  0  0  0  0  0  0  0  0  0  0  0
    5.4606   -3.9718   17.4795 H   0  0  0  0  0  0  0  0  0  0  0  0
    7.3172   -4.8542   17.4039 H   0  0  0  0  0  0  0  0  0  0  0  0
    5.8836    0.9476   16.7045 H   0  0  0  0  0  0  0  0  0  0  0  0
    4.9663    2.7128   12.6462 H   0  0  0  0  0  0  0  0  0  0  0  0
    4.0719    3.9885   12.4726 H   0  0  0  0  0  0  0  0  0  0  0  0
   10.6006   -4.8590   17.5394 H   0  0  0  0  0  0  0  0  0  0  0  0
    9.0385   -5.4090   18.1907 H   0  0  0  0  0  0  0  0  0  0  0  0
    9.9598   -6.4553   17.0834 H   0  0  0  0  0  0  0  0  0  0  0  0
   10.6149   -3.8027   15.4280 H   0  0  0  0  0  0  0  0  0  0  0  0
    9.0626   -2.9564   15.2254 H   0  0  0  0  0  0  0  0  0  0  0  0
    9.8074   -3.0767   16.8379 H   0  0  0  0  0  0  0  0  0  0  0  0
   10.2283   -6.0288   14.9431 H   0  0  0  0  0  0  0  0  0  0  0  0
    8.5256   -6.5423   15.0071 H   0  0  0  0  0  0  0  0  0  0  0  0
    8.9950   -5.1357   14.0219 H   0  0  0  0  0  0  0  0  0  0  0  0
    2.4364   -1.8109   16.2194 H   0  0  0  0  0  0  0  0  0  0  0  0
    2.9183   -2.6920   17.6711 H   0  0  0  0  0  0  0  0  0  0  0  0
    1.2999   -4.0115   16.5129 H   0  0  0  0  0  0  0  0  0  0  0  0
    2.2385   -3.8904   14.9623 H   0  0  0  0  0  0  0  0  0  0  0  0
    6.0240   -1.6812   16.9224 H   0  0  0  0  0  0  0  0  0  0  0  0
    4.4295   -1.1265   17.5127 H   0  0  0  0  0  0  0  0  0  0  0  0
    4.2266   -0.5856   14.8566 H   0  0  0  0  0  0  0  0  0  0  0  0
    6.2853   -1.0518   14.1615 H   0  0  0  0  0  0  0  0  0  0  0  0
    7.0262    0.0872   15.4409 H   0  0  0  0  0  0  0  0  0  0  0  0
    5.9785    1.8869   14.2338 H   0  0  0  0  0  0  0  0  0  0  0  0
    7.7768    0.0592   12.4632 H   0  0  0  0  0  0  0  0  0  0  0  0
    8.3924    1.2176   13.6896 H   0  0  0  0  0  0  0  0  0  0  0  0
    7.3808    3.8459   13.2802 H   0  0  0  0  0  0  0  0  0  0  0  0
    7.4189    5.6024   11.4414 H   0  0  0  0  0  0  0  0  0  0  0  0
    7.7063    4.8666    8.9935 H   0  0  0  0  0  0  0  0  0  0  0  0
    7.9511    2.3899    8.4117 H   0  0  0  0  0  0  0  0  0  0  0  0
    7.9120    0.6598   10.2426 H   0  0  0  0  0  0  0  0  0  0  0  0
    3.9348    1.2856   10.4904 H   0  0  0  0  0  0  0  0  0  0  0  0
    4.4041    3.7138    9.9926 H   0  0  0  0  0  0  0  0  0  0  0  0
    2.3915    3.1015    8.9090 H   0  0  0  0  0  0  0  0  0  0  0  0
    1.9903    4.5925    9.7672 H   0  0  0  0  0  0  0  0  0  0  0  0
   -0.7662    3.4908   10.2483 H   0  0  0  0  0  0  0  0  0  0  0  0
   -1.8005    1.8703   11.9021 H   0  0  0  0  0  0  0  0  0  0  0  0
   -0.3678    0.2912   13.2692 H   0  0  0  0  0  0  0  0  0  0  0  0
    2.0982    0.2829   13.0350 H   0  0  0  0  0  0  0  0  0  0  0  0
    2.2999   -6.1957   14.7414 H   0  0  0  0  0  0  0  0  0  0  0  0
    1.1975   -6.2595   16.2011 H   0  0  0  0  0  0  0  0  0  0  0  0
    2.0784   -7.7026   18.2118 H   0  0  0  0  0  0  0  0  0  0  0  0
    3.5788   -8.0209   14.0967 H   0  0  0  0  0  0  0  0  0  0  0  0
    2.9896  -10.0307   18.8226 H   0  0  0  0  0  0  0  0  0  0  0  0
    5.5333  -12.9138   15.2390 H   0  0  0  0  0  0  0  0  0  0  0  0
  1  4  1  0  0  0  0
  1 49  1  0  0  0  0
  1 50  1  0  0  0  0
  1  2  1  0  0  0  0
  2 19  1  0  0  0  0
  2 41  1  0  0  0  0
  4  7  1  0  0  0  0
  4  8  1  0  0  0  0
  4 51  1  0  0  0  0
  5 10  1  0  0  0  0
  5 52  1  0  0  0  0
  6 53  1  0  0  0  0
  3  7  2  0  0  0  0
  5  7  1  0  0  0  0
  8 18  1  0  0  0  0
  8 20  1  0  0  0  0
 10 13  1  0  0  0  0
 10 15  1  0  0  0  0
 10 17  1  0  0  0  0
 11 32  1  0  0  0  0
 11 54  1  0  0  0  0
 12 55  1  0  0  0  0
 13 56  1  0  0  0  0
 13 57  1  0  0  0  0
 13 58  1  0  0  0  0
 14 48  4  0  0  0  0
 15 59  1  0  0  0  0
 15 60  1  0  0  0  0
 15 61  1  0  0  0  0
 17 62  1  0  0  0  0
 17 63  1  0  0  0  0
 17 64  1  0  0  0  0
 18 19  1  0  0  0  0
 18 65  1  0  0  0  0
 18 66  1  0  0  0  0
 19 67  1  0  0  0  0
 19 68  1  0  0  0  0
 20 21  1  0  0  0  0
 20 69  1  0  0  0  0
 20 70  1  0  0  0  0
  6 21  1  0  0  0  0
 21 22  1  0  0  0  0
 21 71  1  0  0  0  0
 22 23  1  0  0  0  0
 22 72  1  0  0  0  0
 22 73  1  0  0  0  0
 23 24  1  0  0  0  0
 23 31  1  0  0  0  0
 23 74  1  0  0  0  0
 24 25  1  0  0  0  0
 24 75  1  0  0  0  0
 24 76  1  0  0  0  0
 25 26  4  0  0  0  0
 25 30  4  0  0  0  0
 26 27  4  0  0  0  0
 26 77  1  0  0  0  0
 27 28  4  0  0  0  0
 27 78  1  0  0  0  0
 28 29  4  0  0  0  0
 28 79  1  0  0  0  0
 29 30  4  0  0  0  0
 29 80  1  0  0  0  0
 30 81  1  0  0  0  0
  9 31  2  0  0  0  0
 11 31  1  0  0  0  0
 32 33  1  0  0  0  0
 32 40  1  0  0  0  0
 32 82  1  0  0  0  0
 12 33  1  0  0  0  0
 33 34  1  0  0  0  0
 33 83  1  0  0  0  0
 34 35  1  0  0  0  0
 34 84  1  0  0  0  0
 34 85  1  0  0  0  0
 35 36  4  0  0  0  0
 35 40  4  0  0  0  0
 36 37  4  0  0  0  0
 36 86  1  0  0  0  0
 37 38  4  0  0  0  0
 37 87  1  0  0  0  0
 38 39  4  0  0  0  0
 38 88  1  0  0  0  0
 39 40  4  0  0  0  0
 39 89  1  0  0  0  0
 41 42  1  0  0  0  0
 41 90  1  0  0  0  0
 41 91  1  0  0  0  0
 42 43  4  0  0  0  0
 42 46  4  0  0  0  0
 43 47  4  0  0  0  0
 43 92  1  0  0  0  0
 14 44  4  0  0  0  0
 44 45  4  0  0  0  0
 44 47  4  0  0  0  0
 16 45  4  0  0  0  0
 45 46  4  0  0  0  0
 46 93  1  0  0  0  0
 47 94  1  0  0  0  0
 16 48  4  0  0  0  0
 48 95  1  0  0  0  0
M  END
