REMARK  17 active torsions:
REMARK  status: ('A' for Active; 'I' for Inactive)
REMARK    1  A    between atoms: N1_2  and  C31_41 
REMARK    2  A    between atoms: C2_4  and  C3_7 
REMARK       I    between atoms: N2_5  and  C3_7 
REMARK    3  A    between atoms: N2_5  and  C4_10 
REMARK    4  A    between atoms: O2_6  and  C11_21 
REMARK    5  A    between atoms: N3_8  and  C10_20 
REMARK    6  A    between atoms: C4_10  and  C7_17 
REMARK    7  A    between atoms: C4_10  and  C5_13 
REMARK    8  A    between atoms: C4_10  and  C6_15 
REMARK    9  A    between atoms: N4_11  and  C22_32 
REMARK       I    between atoms: N4_11  and  C21_31 
REMARK   10  A    between atoms: O4_12  and  C23_33 
REMARK   11  A    between atoms: C10_20  and  C11_21 
REMARK   12  A    between atoms: C11_21  and  C12_22 
REMARK   13  A    between atoms: C12_22  and  C13_23 
REMARK   14  A    between atoms: C13_23  and  C21_31 
REMARK   15  A    between atoms: C13_23  and  C14_24 
REMARK   16  A    between atoms: C14_24  and  C15_25 
REMARK   17  A    between atoms: C31_41  and  C32_42 
ROOT
HETATM    1  C10 ATX X   1       4.992  -1.467  16.643  1.00 20.00     0.138 C 
HETATM    2  H21 ATX X   1       6.024  -1.681  16.922  1.00 20.00     0.084 H 
HETATM    3  H22 ATX X   1       4.429  -1.127  17.513  1.00 20.00     0.084 H 
ENDROOT
BRANCH   1   4
HETATM    4  N3  ATX X   1       4.372  -2.711  16.115  1.00 20.00     0.108 N 
HETATM    5  C8  ATX X   1       2.952  -2.700  16.582  1.00 20.00     0.139 C 
HETATM    6  C9  ATX X   1       2.285  -3.961  16.049  1.00 20.00     0.138 C 
HETATM    7  H18 ATX X   1       2.918  -2.692  17.671  1.00 20.00     0.082 H 
HETATM    8  H17 ATX X   1       2.436  -1.811  16.219  1.00 20.00     0.082 H 
HETATM    9  H20 ATX X   1       2.239  -3.890  14.962  1.00 20.00     0.082 H 
HETATM   10  H19 ATX X   1       1.300  -4.011  16.513  1.00 20.00     0.082 H 
HETATM   11  N1  ATX X   1       2.962  -5.181  16.392  1.00 20.00     0.097 N 
HETATM   12  C1  ATX X   1       4.387  -5.096  15.844  1.00 20.00     0.151 C 
HETATM   13  H2  ATX X   1       4.327  -4.960  14.764  1.00 20.00     0.084 H 
HETATM   14  H1  ATX X   1       4.880  -6.024  16.136  1.00 20.00     0.084 H 
HETATM   15  C2  ATX X   1       5.230  -3.972  16.414  1.00 20.00     0.235 C 
HETATM   16  H3  ATX X   1       5.461  -3.972  17.480  1.00 20.00     0.106 H 
BRANCH  11  17
HETATM   17  C31 ATX X   1       2.219  -6.308  15.822  1.00 20.00     0.137 C 
HETATM   18  H42 ATX X   1       2.300  -6.196  14.741  1.00 20.00     0.087 H 
HETATM   19  H43 ATX X   1       1.198  -6.260  16.201  1.00 20.00     0.087 H 
BRANCH  17  20
HETATM   20  C32 ATX X   1       2.762  -7.689  16.130  1.00 20.00    -0.027 A 
HETATM   21  C36 ATX X   1       3.456  -8.443  15.094  1.00 20.00    -0.040 A 
HETATM   22  H45 ATX X   1       3.579  -8.021  14.097  1.00 20.00     0.088 H 
HETATM   23  C35 ATX X   1       3.986  -9.765  15.404  1.00 20.00     0.105 A 
HETATM   24  C34 ATX X   1       3.792 -10.283  16.719  1.00 20.00     0.105 A 
HETATM   25  O6  ATX X   1       4.672 -10.761  14.736  1.00 20.00    -0.323 OA
HETATM   26  C37 ATX X   1       3.108  -9.600  17.828  1.00 20.00    -0.047 A 
HETATM   27  O5  ATX X   1       4.381 -11.546  16.768  1.00 20.00    -0.323 OA
HETATM   28  C33 ATX X   1       2.605  -8.282  17.453  1.00 20.00    -0.072 A 
HETATM   29  H46 ATX X   1       2.990 -10.031  18.823  1.00 20.00     0.087 H 
HETATM   30  H44 ATX X   1       2.078  -7.703  18.212  1.00 20.00     0.084 H 
HETATM   31  C38 ATX X   1       5.008 -11.998  15.510  1.00 20.00     0.115 A 
HETATM   32  H47 ATX X   1       5.533 -12.914  15.239  1.00 20.00     0.118 H 
ATOM     33  H38 ATX X   1       5.973 -11.538  15.826  1.00  0.00     0.118 H 
ENDBRANCH  17  20
ENDBRANCH  11  17
BRANCH  15  34
HETATM   34  C3  ATX X   1       6.535  -4.075  15.741  1.00 20.00     0.253 C 
HETATM   35  O1  ATX X   1       6.635  -3.688  14.551  1.00 20.00    -0.271 OA
HETATM   36  N2  ATX X   1       7.562  -4.577  16.464  1.00 20.00    -0.351 N 
HETATM   37  H4  ATX X   1       7.317  -4.854  17.404  1.00 20.00     0.163 HD
BRANCH  36  38
HETATM   38  C4  ATX X   1       8.969  -4.788  16.115  1.00 20.00     0.022 C 
BRANCH  38  39
HETATM   39  C7  ATX X   1       9.194  -5.684  14.943  1.00 20.00    -0.054 C 
HETATM   40  H14 ATX X   1      10.228  -6.029  14.943  1.00 20.00     0.030 H 
HETATM   41  H16 ATX X   1       8.995  -5.136  14.022  1.00 20.00     0.030 H 
HETATM   42  H15 ATX X   1       8.526  -6.542  15.007  1.00 20.00     0.030 H 
ENDBRANCH  38  39
BRANCH  38  43
HETATM   43  C5  ATX X   1       9.695  -5.425  17.321  1.00 20.00    -0.054 C 
HETATM   44  H10 ATX X   1       9.960  -6.455  17.083  1.00 20.00     0.030 H 
HETATM   45  H9  ATX X   1       9.039  -5.409  18.191  1.00 20.00     0.030 H 
HETATM   46  H8  ATX X   1      10.601  -4.859  17.539  1.00 20.00     0.030 H 
ENDBRANCH  38  43
BRANCH  38  47
HETATM   47  C6  ATX X   1       9.650  -3.590  15.889  1.00 20.00    -0.054 C 
HETATM   48  H11 ATX X   1      10.615  -3.803  15.428  1.00 20.00     0.030 H 
HETATM   49  H12 ATX X   1       9.063  -2.956  15.225  1.00 20.00     0.030 H 
HETATM   50  H13 ATX X   1       9.807  -3.077  16.838  1.00 20.00     0.030 H 
ENDBRANCH  38  47
ENDBRANCH  36  38
ENDBRANCH  15  34
ENDBRANCH   1   4
BRANCH   1  51
HETATM   51  C11 ATX X   1       4.989  -0.401  15.613  1.00 20.00     0.062 C 
HETATM   52  H23 ATX X   1       4.227  -0.586  14.857  1.00 20.00     0.085 H 
BRANCH  51  53
HETATM   53  O2  ATX X   1       4.984   0.646  16.556  1.00 20.00    -0.394 OA
HETATM   54  H5  ATX X   1       5.884   0.948  16.704  1.00 20.00     0.210 HD
ENDBRANCH  51  53
BRANCH  51  55
HETATM   55  C12 ATX X   1       6.208  -0.143  14.758  1.00 20.00    -0.028 C 
HETATM   56  H24 ATX X   1       6.285  -1.052  14.162  1.00 20.00     0.038 H 
HETATM   57  H25 ATX X   1       7.026   0.087  15.441  1.00 20.00     0.038 H 
BRANCH  55  58
HETATM   58  C13 ATX X   1       6.195   0.961  13.702  1.00 20.00     0.029 C 
HETATM   59  H26 ATX X   1       5.979   1.887  14.234  1.00 20.00     0.055 H 
BRANCH  58  60
HETATM   60  C21 ATX X   1       5.093   0.736  12.596  1.00 20.00     0.222 C 
HETATM   61  O3  ATX X   1       4.734  -0.406  12.128  1.00 20.00    -0.273 OA
HETATM   62  N4  ATX X   1       4.608   1.880  12.201  1.00 20.00    -0.350 N 
HETATM   63  H6  ATX X   1       4.966   2.713  12.646  1.00 20.00     0.163 HD
BRANCH  62  64
HETATM   64  C22 ATX X   1       3.603   2.059  11.183  1.00 20.00     0.063 C 
HETATM   65  C30 ATX X   1       2.149   1.834  11.547  1.00 20.00    -0.027 A 
HETATM   66  C25 ATX X   1       1.245   2.823  10.691  1.00 20.00    -0.047 A 
HETATM   67  C29 ATX X   1       1.505   0.973  12.434  1.00 20.00    -0.074 A 
HETATM   68  C26 ATX X   1      -0.139   2.817  10.832  1.00 20.00    -0.076 A 
HETATM   69  C24 ATX X   1       2.283   3.550   9.896  1.00 20.00    -0.014 C 
HETATM   70  H38 ATX X   1      -0.766   3.491  10.248  1.00 20.00     0.084 H 
HETATM   71  C27 ATX X   1      -0.718   1.890  11.776  1.00 20.00    -0.082 A 
HETATM   72  H39 ATX X   1      -1.800   1.870  11.902  1.00 20.00     0.083 H 
HETATM   73  C28 ATX X   1       0.108   0.976  12.568  1.00 20.00    -0.082 A 
HETATM   74  H40 ATX X   1      -0.368   0.291  13.269  1.00 20.00     0.083 H 
HETATM   75  H37 ATX X   1       1.990   4.593   9.767  1.00 20.00     0.044 H 
HETATM   76  H36 ATX X   1       2.392   3.102   8.909  1.00 20.00     0.044 H 
HETATM   77  C23 ATX X   1       3.569   3.472  10.650  1.00 20.00     0.063 C 
HETATM   78  H35 ATX X   1       4.404   3.714   9.993  1.00 20.00     0.087 H 
HETATM   79  H41 ATX X   1       2.098   0.283  13.035  1.00 20.00     0.084 H 
HETATM   80  H34 ATX X   1       3.935   1.286  10.490  1.00 20.00     0.084 H 
BRANCH  77  81
HETATM   81  O4  ATX X   1       3.705   4.419  11.697  1.00 20.00    -0.393 OA
HETATM   82  H7  ATX X   1       4.072   3.989  12.473  1.00 20.00     0.210 HD
ENDBRANCH  77  81
ENDBRANCH  62  64
ENDBRANCH  58  60
BRANCH  58  83
HETATM   83  C14 ATX X   1       7.612   1.018  12.955  1.00 20.00    -0.029 C 
HETATM   84  H27 ATX X   1       7.777   0.059  12.463  1.00 20.00     0.041 H 
HETATM   85  H28 ATX X   1       8.392   1.218  13.690  1.00 20.00     0.041 H 
BRANCH  83  86
HETATM   86  C15 ATX X   1       7.644   2.118  11.882  1.00 20.00    -0.057 A 
HETATM   87  C20 ATX X   1       7.807   1.716  10.492  1.00 20.00    -0.077 A 
HETATM   88  H33 ATX X   1       7.912   0.660  10.243  1.00 20.00     0.084 H 
HETATM   89  C19 ATX X   1       7.830   2.697   9.450  1.00 20.00    -0.082 A 
HETATM   90  C18 ATX X   1       7.689   4.119   9.787  1.00 20.00    -0.083 A 
HETATM   91  H32 ATX X   1       7.951   2.390   8.412  1.00 20.00     0.083 H 
HETATM   92  C17 ATX X   1       7.523   4.546  11.195  1.00 20.00    -0.082 A 
HETATM   93  H31 ATX X   1       7.706   4.867   8.993  1.00 20.00     0.083 H 
HETATM   94  C16 ATX X   1       7.501   3.549  12.239  1.00 20.00    -0.077 A 
HETATM   95  H30 ATX X   1       7.419   5.602  11.441  1.00 20.00     0.083 H 
HETATM   96  H29 ATX X   1       7.381   3.846  13.280  1.00 20.00     0.084 H 
ENDBRANCH  83  86
ENDBRANCH  58  83
ENDBRANCH  55  58
ENDBRANCH  51  55
ENDBRANCH   1  51
TORSDOF 17
