REMARK  21 active torsions:
REMARK  status: ('A' for Active; 'I' for Inactive)
REMARK    1  A    between atoms: N1_1  and  C1_2 
REMARK    2  A    between atoms: C1_2  and  C8_10 
REMARK    3  A    between atoms: C1_2  and  C7_8 
REMARK    4  A    between atoms: C2_3  and  N2_27 
REMARK    5  A    between atoms: C2_3  and  C24_26 
REMARK    6  A    between atoms: C2_3  and  C9_11 
REMARK    7  A    between atoms: C3_4  and  C10_12 
REMARK    8  A    between atoms: C3_4  and  N3_30 
REMARK    9  A    between atoms: C3_4  and  C25_29 
REMARK   10  A    between atoms: C4_5  and  C26_32 
REMARK   11  A    between atoms: C4_5  and  C23_25 
REMARK   12  A    between atoms: C5_6  and  C11_13 
REMARK   13  A    between atoms: C5_6  and  N4_35 
REMARK   14  A    between atoms: C5_6  and  C27_34 
REMARK   15  A    between atoms: C6_7  and  N5_38 
REMARK       I    between atoms: C7_8  and  N2_27 
REMARK   16  A    between atoms: C10_12  and  C13_15 
REMARK   17  A    between atoms: C11_13  and  C16_18 
REMARK   18  A    between atoms: C11_13  and  C14_16 
REMARK   19  A    between atoms: C12_14  and  C15_17 
REMARK   20  A    between atoms: C23_25  and  C25_29 
REMARK       I    between atoms: C24_26  and  N3_30 
REMARK   21  A    between atoms: C25_29  and  O7_41 
REMARK       I    between atoms: C26_32  and  N4_35 
REMARK       I    between atoms: C27_34  and  N5_38 
ROOT
HETATM    1  C23 ATX X   1      -9.405  18.196  28.546  1.00 20.00    -0.031 C 
HETATM    2  H36 ATX X   1      -9.529  18.924  29.348  1.00 20.00     0.037 H 
HETATM    3  H37 ATX X   1      -8.871  17.327  28.930  1.00 20.00     0.037 H 
ENDROOT
BRANCH   1   4
HETATM    4  C4  ATX X   1      -8.605  18.826  27.398  1.00 20.00     0.011 C 
HETATM    5  H7  ATX X   1      -9.223  19.585  26.917  1.00 20.00     0.047 H 
HETATM    6  H6  ATX X   1      -7.699  19.256  27.826  1.00 20.00     0.047 H 
BRANCH   4   7
HETATM    7  C26 ATX X   1      -8.183  17.817  26.360  1.00 20.00     0.218 C 
HETATM    8  N4  ATX X   1      -8.585  17.971  25.103  1.00 20.00    -0.347 N 
HETATM    9  H41 ATX X   1      -9.142  18.779  24.864  1.00 20.00     0.163 HD
HETATM   10  O3  ATX X   1      -7.470  16.849  26.696  1.00 20.00    -0.274 OA
BRANCH   8  11
HETATM   11  C5  ATX X   1      -8.253  17.023  24.068  1.00 20.00     0.092 C 
HETATM   12  H8  ATX X   1      -7.746  16.185  24.546  1.00 20.00     0.088 H 
BRANCH  11  13
HETATM   13  C11 ATX X   1      -9.457  16.377  23.387  1.00 20.00    -0.033 C 
HETATM   14  H18 ATX X   1      -9.557  16.917  22.446  1.00 20.00     0.042 H 
BRANCH  13  15
HETATM   15  C16 ATX X   1     -10.739  16.533  24.224  1.00 20.00    -0.071 C 
HETATM   16  H26 ATX X   1     -11.562  16.019  23.727  1.00 20.00     0.028 H 
HETATM   17  H28 ATX X   1     -10.981  17.591  24.326  1.00 20.00     0.028 H 
HETATM   18  H27 ATX X   1     -10.584  16.099  25.212  1.00 20.00     0.028 H 
ENDBRANCH  13  15
BRANCH  13  19
HETATM   19  C14 ATX X   1      -9.264  14.902  23.055  1.00 20.00    -0.071 C 
HETATM   20  H22 ATX X   1      -9.303  14.764  21.974  1.00 20.00     0.028 H 
HETATM   21  H21 ATX X   1     -10.054  14.317  23.525  1.00 20.00     0.028 H 
HETATM   22  H20 ATX X   1      -8.296  14.570  23.429  1.00 20.00     0.028 H 
ENDBRANCH  13  19
ENDBRANCH  11  13
BRANCH  11  23
HETATM   23  C27 ATX X   1      -7.312  17.705  23.054  1.00 20.00     0.241 C 
HETATM   24  N5  ATX X   1      -6.277  16.910  22.755  1.00 20.00    -0.345 N 
HETATM   25  H42 ATX X   1      -6.263  16.019  23.231  1.00 20.00     0.163 HD
HETATM   26  O4  ATX X   1      -7.544  18.799  22.596  1.00 20.00    -0.271 OA
BRANCH  24  27
HETATM   27  C6  ATX X   1      -5.196  17.143  21.863  1.00 20.00     0.099 C 
HETATM   28  C12 ATX X   1      -5.589  17.486  20.437  1.00 20.00    -0.027 C 
HETATM   29  H19 ATX X   1      -5.451  16.530  19.931  1.00 20.00     0.043 H 
HETATM   30  C17 ATX X   1      -4.672  18.535  19.802  1.00 20.00    -0.039 C 
HETATM   31  H29 ATX X   1      -5.071  19.530  19.998  1.00 20.00     0.036 H 
HETATM   32  H30 ATX X   1      -4.620  18.369  18.726  1.00 20.00     0.036 H 
HETATM   33  C29 ATX X   1      -3.563  18.447  20.278  1.00 20.00     0.029 C 
HETATM   34  H44 ATX X   1      -3.224  17.448  20.005  1.00 20.00     0.075 H 
HETATM   35  H43 ATX X   1      -3.144  19.374  19.886  1.00 20.00     0.075 H 
HETATM   36  O6  ATX X   1      -3.172  18.600  21.652  1.00 20.00    -0.320 OA
HETATM   37  C28 ATX X   1      -4.253  18.199  22.473  1.00 20.00     0.282 C 
HETATM   38  O5  ATX X   1      -4.434  18.654  23.600  1.00 20.00    -0.263 OA
HETATM   39  H9  ATX X   1      -4.676  16.191  21.755  1.00 20.00     0.089 H 
BRANCH  28  40
HETATM   40  C15 ATX X   1      -7.059  17.853  20.200  1.00 20.00    -0.070 C 
HETATM   41  H25 ATX X   1      -7.442  17.291  19.348  1.00 20.00     0.028 H 
HETATM   42  H24 ATX X   1      -7.139  18.921  19.997  1.00 20.00     0.028 H 
HETATM   43  H23 ATX X   1      -7.642  17.608  21.088  1.00 20.00     0.028 H 
ENDBRANCH  28  40
ENDBRANCH  24  27
ENDBRANCH  11  23
ENDBRANCH   8  11
ENDBRANCH   4   7
ENDBRANCH   1   4
BRANCH   1  44
HETATM   44  C25 ATX X   1     -10.818  17.753  28.010  1.00 20.00     0.056 C 
HETATM   45  H39 ATX X   1     -10.786  17.511  26.948  1.00 20.00     0.086 H 
BRANCH  44  46
HETATM   46  C3  ATX X   1     -11.284  16.497  28.779  1.00 20.00     0.041 C 
HETATM   47  H5  ATX X   1     -10.630  15.649  28.577  1.00 20.00     0.076 H 
BRANCH  46  48
HETATM   48  C10 ATX X   1     -12.670  16.079  28.322  1.00 20.00    -0.020 C 
HETATM   49  H16 ATX X   1     -12.479  15.640  27.343  1.00 20.00     0.043 H 
HETATM   50  H17 ATX X   1     -13.296  16.970  28.370  1.00 20.00     0.043 H 
BRANCH  48  51
HETATM   51  C13 ATX X   1     -13.432  14.971  29.048  1.00 20.00    -0.056 A 
HETATM   52  C19 ATX X   1     -14.560  15.373  29.807  1.00 20.00    -0.077 A 
HETATM   53  C21 ATX X   1     -15.300  14.380  30.483  1.00 20.00    -0.082 A 
HETATM   54  H32 ATX X   1     -14.848  16.422  29.867  1.00 20.00     0.084 H 
HETATM   55  C22 ATX X   1     -14.917  13.043  30.412  1.00 20.00    -0.083 A 
HETATM   56  H34 ATX X   1     -16.178  14.661  31.065  1.00 20.00     0.083 H 
HETATM   57  H35 ATX X   1     -15.492  12.296  30.958  1.00 20.00     0.083 H 
HETATM   58  C20 ATX X   1     -13.818  12.638  29.661  1.00 20.00    -0.082 A 
HETATM   59  H33 ATX X   1     -13.538  11.586  29.598  1.00 20.00     0.083 H 
HETATM   60  C18 ATX X   1     -13.076  13.629  28.983  1.00 20.00    -0.077 A 
HETATM   61  H31 ATX X   1     -12.206  13.336  28.396  1.00 20.00     0.084 H 
ENDBRANCH  48  51
ENDBRANCH  46  48
BRANCH  46  62
HETATM   62  N3  ATX X   1     -11.234  16.802  30.197  1.00 20.00    -0.352 N 
HETATM   63  H40 ATX X   1     -11.777  17.588  30.523  1.00 20.00     0.163 HD
HETATM   64  C24 ATX X   1     -10.514  16.113  31.120  1.00 20.00     0.240 C 
HETATM   65  O2  ATX X   1      -9.853  15.141  30.780  1.00 20.00    -0.271 OA
BRANCH  64  66
HETATM   66  C2  ATX X   1     -10.598  16.690  32.518  1.00 20.00     0.086 C 
HETATM   67  H4  ATX X   1     -11.240  17.561  32.387  1.00 20.00     0.086 H 
BRANCH  66  68
HETATM   68  N2  ATX X   1     -11.164  15.769  33.436  1.00 20.00    -0.346 N 
HETATM   69  C7  ATX X   1     -12.322  15.096  33.343  1.00 20.00     0.251 C 
HETATM   70  O1  ATX X   1     -13.038  15.239  32.375  1.00 20.00    -0.271 OA
HETATM   71  H38 ATX X   1     -10.624  15.596  34.272  1.00 20.00     0.163 HD
BRANCH  69  72
HETATM   72  C1  ATX X   1     -12.564  14.209  34.566  1.00 20.00     0.203 C 
HETATM   73  H3  ATX X   1     -11.803  14.516  35.284  1.00 20.00     0.102 H 
BRANCH  72  74
HETATM   74  C8  ATX X   1     -12.250  12.742  34.372  1.00 20.00    -0.039 C 
HETATM   75  H11 ATX X   1     -13.028  12.138  34.839  1.00 20.00     0.031 H 
HETATM   76  H10 ATX X   1     -11.289  12.513  34.832  1.00 20.00     0.031 H 
HETATM   77  H12 ATX X   1     -12.205  12.517  33.306  1.00 20.00     0.031 H 
ENDBRANCH  72  74
BRANCH  72  78
HETATM   78  N1  ATX X   1     -13.823  14.474  35.207  1.00 20.00     0.091 N 
HETATM   79  H1  ATX X   1     -13.749  14.268  36.193  1.00 20.00     0.313 HD
HETATM   80  H2  ATX X   1     -14.066  15.446  35.083  1.00 20.00     0.313 HD
ENDBRANCH  72  78
ENDBRANCH  69  72
ENDBRANCH  66  68
BRANCH  66  81
HETATM   81  C9  ATX X   1      -9.262  17.187  33.108  1.00 20.00    -0.049 C 
HETATM   82  H15 ATX X   1      -8.899  16.468  33.842  1.00 20.00     0.030 H 
HETATM   83  H14 ATX X   1      -9.414  18.153  33.589  1.00 20.00     0.030 H 
HETATM   84  H13 ATX X   1      -8.529  17.291  32.308  1.00 20.00     0.030 H 
ENDBRANCH  66  81
ENDBRANCH  64  66
ENDBRANCH  46  62
ENDBRANCH  44  46
BRANCH  44  85
HETATM   85  O7  ATX X   1     -11.697  18.822  28.249  1.00 20.00    -0.393 OA
HETATM   86  H45 ATX X   1     -11.881  19.276  27.424  1.00 20.00     0.210 HD
ENDBRANCH  44  85
ENDBRANCH   1  44
TORSDOF 21
