REMARK  20 active torsions:
REMARK  status: ('A' for Active; 'I' for Inactive)
REMARK    1  A    between atoms: N1_1  and  C1_5 
REMARK    2  A    between atoms: C1_5  and  C7_11 
REMARK       I    between atoms: C2_6  and  C24_29 
REMARK    3  A    between atoms: C2_6  and  N2_30 
REMARK       I    between atoms: C3_7  and  N3_34 
REMARK    4  A    between atoms: C3_7  and  C10_15 
REMARK       I    between atoms: C3_7  and  C25_33 
REMARK       I    between atoms: C4_8  and  C23_28 
REMARK       I    between atoms: C4_8  and  C26_37 
REMARK       I    between atoms: C5_9  and  C27_39 
REMARK    5  A    between atoms: C5_9  and  C11_16 
REMARK       I    between atoms: C5_9  and  N4_40 
REMARK    6  A    between atoms: C6_10  and  C12_17 
REMARK    7  A    between atoms: C6_10  and  N5_45 
REMARK    8  A    between atoms: C6_10  and  C28_44 
REMARK       I    between atoms: C7_11  and  N2_30 
REMARK    9  A    between atoms: C10_15  and  C13_18 
REMARK       I    between atoms: C23_28  and  C25_33 
REMARK       I    between atoms: C24_29  and  N3_34 
REMARK       I    between atoms: C25_33  and  O7_49 
REMARK       I    between atoms: C26_37  and  N4_40 
REMARK       I    between atoms: C27_39  and  N5_45 
REMARK   10  A    between atoms: O5_42  and  C28_44 
REMARK       A    between atoms: C28_44  and  O6_47 
ROOT
HETATM    1  C25 ATX X   1      -9.926  17.871   1.167  1.00 20.00     0.141 C 
ENDROOT
HETATM    2  C23 ATX X   1     -10.774  16.612   0.915  1.00 20.00     0.043 C 
HETATM    3  C4  ATX X   1     -11.884  16.414   1.972  1.00 20.00     0.105 C 
HETATM    4  C26 ATX X   1     -11.370  15.781   3.271  1.00 20.00     0.218 C 
HETATM    5  O3  ATX X   1     -10.780  14.710   3.196  1.00 20.00    -0.274 OA
HETATM    6  N4  ATX X   1     -11.629  16.367   4.458  1.00 20.00    -0.347 N 
ATOM      7  H4  ATX X   1     -12.060  17.291   4.494  1.00  0.00     0.163 HD
HETATM    8  C5  ATX X   1     -11.280  15.653   5.711  1.00 20.00     0.179 C 
HETATM    9  C27 ATX X   1     -12.596  15.131   6.328  1.00 20.00     0.241 C 
HETATM   10  N5  ATX X   1     -12.539  13.842   6.657  1.00 20.00    -0.350 N 
ATOM     11  H5  ATX X   1     -11.638  13.408   6.454  1.00  0.00     0.163 HD
HETATM   12  O4  ATX X   1     -13.577  15.844   6.493  1.00 20.00    -0.271 OA
BRANCH  10  13
HETATM   13  C6  ATX X   1     -13.519  12.917   7.256  1.00 20.00     0.142 C 
BRANCH  13  14
HETATM   14  C12 ATX X   1     -14.168  12.052   6.121  1.00 20.00     0.005 C 
HETATM   15  C17 ATX X   1     -14.852  12.927   5.045  1.00 20.00     0.012 C 
HETATM   16  C15 ATX X   1     -15.279  11.090   6.638  1.00 20.00     0.012 C 
ENDBRANCH  13  14
BRANCH  13  17
HETATM   17  C28 ATX X   1     -12.829  12.077   8.419  1.00 20.00     0.279 C 
HETATM   18  O6  ATX X   1     -13.000  12.664   9.710  1.00 20.00    -0.364 OA
HETATM   19  C29 ATX X   1     -13.056  11.697  10.774  1.00 20.00     0.204 C 
BRANCH  17  20
HETATM   20  O5  ATX X   1     -11.511  11.436   8.275  1.00 20.00    -0.369 OA
ATOM     21  H5  ATX X   1     -11.099  10.935   8.969  1.00  0.00     0.212 HD
ENDBRANCH  17  20
ENDBRANCH  13  17
ENDBRANCH  10  13
BRANCH   8  22
HETATM   22  C11 ATX X   1     -10.432  16.519   6.669  1.00 20.00     0.009 C 
HETATM   23  C14 ATX X   1      -9.968  15.726   7.908  1.00 20.00     0.012 C 
HETATM   24  C16 ATX X   1      -9.167  17.037   5.954  1.00 20.00     0.012 C 
ENDBRANCH   8  22
HETATM   25  C3  ATX X   1      -8.663  17.822   0.218  1.00 20.00     0.117 C 
HETATM   26  N3  ATX X   1      -8.982  17.902  -1.237  1.00 20.00    -0.352 N 
HETATM   27  C24 ATX X   1      -8.818  16.868  -2.081  1.00 20.00     0.240 C 
HETATM   28  O2  ATX X   1      -8.435  15.761  -1.729  1.00 20.00    -0.271 OA
ATOM     29  H3  ATX X   1      -9.341  18.781  -1.609  1.00  0.00     0.163 HD
HETATM   30  C2  ATX X   1      -9.068  17.115  -3.573  1.00 20.00     0.172 C 
HETATM   31  C9  ATX X   1     -10.088  16.115  -4.141  1.00 20.00     0.042 C 
BRANCH  30  32
HETATM   32  N2  ATX X   1      -7.764  16.932  -4.232  1.00 20.00    -0.346 N 
HETATM   33  C7  ATX X   1      -7.284  17.785  -5.151  1.00 20.00     0.248 C 
HETATM   34  O1  ATX X   1      -7.878  18.795  -5.503  1.00 20.00    -0.271 OA
ATOM     35  H2  ATX X   1      -7.200  16.121  -3.979  1.00  0.00     0.163 HD
BRANCH  33  36
HETATM   36  C1  ATX X   1      -5.883  17.474  -5.680  1.00 20.00     0.270 C 
HETATM   37  C8  ATX X   1      -4.832  18.179  -4.828  1.00 20.00     0.050 C 
BRANCH  36  38
HETATM   38  N1  ATX X   1      -5.741  17.938  -7.039  1.00 20.00    -0.067 N 
ATOM     39  H13 ATX X   1      -5.788  18.954  -7.116  1.00  0.00     0.275 HD
ATOM     40  H12 ATX X   1      -4.795  17.817  -7.400  1.00  0.00     0.275 HD
ATOM     41  H11 ATX X   1      -6.444  17.467  -7.609  1.00  0.00     0.275 HD
ENDBRANCH  36  38
ENDBRANCH  33  36
ENDBRANCH  30  32
BRANCH  25  42
HETATM   42  C10 ATX X   1      -7.686  18.939   0.623  1.00 20.00     0.066 C 
BRANCH  42  43
HETATM   43  C13 ATX X   1      -6.315  18.826  -0.024  1.00 20.00    -0.056 A 
HETATM   44  C19 ATX X   1      -5.368  17.953   0.546  1.00 20.00     0.007 A 
HETATM   45  C21 ATX X   1      -4.086  17.837  -0.004  1.00 20.00     0.001 A 
HETATM   46  C22 ATX X   1      -3.729  18.621  -1.110  1.00 20.00     0.000 A 
HETATM   47  C20 ATX X   1      -4.669  19.494  -1.682  1.00 20.00     0.001 A 
HETATM   48  C18 ATX X   1      -5.958  19.605  -1.137  1.00 20.00     0.007 A 
ENDBRANCH  42  43
ENDBRANCH  25  42
HETATM   49  O7  ATX X   1     -10.864  19.015   1.093  1.00 20.00    -0.393 OA
ATOM     50  H7  ATX X   1     -10.340  19.792   1.249  1.00  0.00     0.210 HD
TORSDOF 20