REMARK  20 active torsions:
REMARK  status: ('A' for Active; 'I' for Inactive)
REMARK    1  A    between atoms: N1_1  and  C1_5 
REMARK    2  A    between atoms: C1_5  and  C7_11 
REMARK       I    between atoms: C2_6  and  C24_29 
REMARK    3  A    between atoms: C2_6  and  N2_30 
REMARK       I    between atoms: C3_7  and  N3_34 
REMARK    4  A    between atoms: C3_7  and  C10_15 
REMARK       I    between atoms: C3_7  and  C25_33 
REMARK       I    between atoms: C4_8  and  C23_28 
REMARK       I    between atoms: C4_8  and  C26_37 
REMARK       I    between atoms: C5_9  and  C27_39 
REMARK    5  A    between atoms: C5_9  and  C11_16 
REMARK       I    between atoms: C5_9  and  N4_40 
REMARK    6  A    between atoms: C6_10  and  C12_17 
REMARK    7  A    between atoms: C6_10  and  N5_45 
REMARK    8  A    between atoms: C6_10  and  C28_44 
REMARK       I    between atoms: C7_11  and  N2_30 
REMARK    9  A    between atoms: C10_15  and  C13_18 
REMARK       I    between atoms: C23_28  and  C25_33 
REMARK       I    between atoms: C24_29  and  N3_34 
REMARK       I    between atoms: C25_33  and  O7_49 
REMARK       I    between atoms: C26_37  and  N4_40 
REMARK       I    between atoms: C27_39  and  N5_45 
REMARK   10  A    between atoms: O5_42  and  C28_44 
REMARK       A    between atoms: C28_44  and  O6_47 
ROOT
HETATM    1 C25  ATX X   1     -13.882  22.079   0.479  1.00 20.00     0.141 C   
ENDROOT
HETATM    2 C23  ATX X   1     -14.730  20.820   0.227  1.00 20.00     0.043 C   
HETATM    3 C4   ATX X   1     -13.873  19.567  -0.063  1.00 20.00     0.105 C   
HETATM    4 C26  ATX X   1     -13.380  19.498  -1.514  1.00 20.00     0.218 C   
HETATM    5 O3   ATX X   1     -14.215  19.551  -2.409  1.00 20.00    -0.274 OA  
HETATM    6 N4   ATX X   1     -12.070  19.317  -1.775  1.00 20.00    -0.347 N   
ATOM      7 H4   ATX X   1     -11.384  19.345  -1.020  1.00  0.00     0.163 HD  
HETATM    8 C5   ATX X   1     -11.636  19.076  -3.174  1.00 20.00     0.179 C   
HETATM    9 C27  ATX X   1     -11.282  17.578  -3.297  1.00 20.00     0.241 C   
HETATM   10 N5   ATX X   1     -11.862  16.993  -4.344  1.00 20.00    -0.350 N   
ATOM     11 H5   ATX X   1     -12.440  17.626  -4.897  1.00  0.00     0.163 HD  
HETATM   12 O4   ATX X   1     -10.542  17.007  -2.508  1.00 20.00    -0.271 OA  
BRANCH  10  13
HETATM   13 C6   ATX X   1     -11.833  15.613  -4.862  1.00 20.00     0.142 C   
BRANCH  13  14
HETATM   14 C12  ATX X   1     -11.908  14.611  -3.658  1.00 20.00     0.005 C   
HETATM   15 C17  ATX X   1     -12.627  15.228  -2.435  1.00 20.00     0.012 C   
HETATM   16 C15  ATX X   1     -10.509  14.170  -3.135  1.00 20.00     0.012 C   
ENDBRANCH  13  14
BRANCH  13  17
HETATM   17 C28  ATX X   1     -12.974  15.422  -5.956  1.00 20.00     0.279 C   
HETATM   18 O6   ATX X   1     -13.615  16.648  -6.314  1.00 20.00    -0.364 OA  
HETATM   19 C29  ATX X   1     -14.075  16.674  -7.677  1.00 20.00     0.204 C   
BRANCH  17  20
HETATM   20 O5   ATX X   1     -13.915  14.289  -5.948  1.00 20.00    -0.369 OA  
ATOM     21 H5   ATX X   1     -13.965  13.652  -6.651  1.00  0.00     0.212 HD  
ENDBRANCH  17  20
ENDBRANCH  13  17
ENDBRANCH  10  13
BRANCH   8  22
HETATM   22 C11  ATX X   1     -10.504  20.032  -3.615  1.00 20.00     0.009 C   
HETATM   23 C14  ATX X   1      -9.337  20.051  -2.606  1.00 20.00     0.012 C   
HETATM   24 C16  ATX X   1      -9.928  19.595  -4.978  1.00 20.00     0.012 C   
ENDBRANCH   8  22
HETATM   25 C3   ATX X   1     -14.840  23.336   0.475  1.00 20.00     0.117 C   
HETATM   26 N3   ATX X   1     -15.834  23.357   1.587  1.00 20.00    -0.352 N   
HETATM   27 C24  ATX X   1     -17.154  23.193   1.393  1.00 20.00     0.240 C   
HETATM   28 O2   ATX X   1     -17.655  22.971   0.299  1.00 20.00    -0.271 OA  
ATOM     29 H3   ATX X   1     -15.497  23.502   2.539  1.00  0.00     0.163 HD  
HETATM   30 C2   ATX X   1     -18.081  23.355   2.603  1.00 20.00     0.172 C   
HETATM   31 C9   ATX X   1     -18.975  22.119   2.791  1.00 20.00     0.042 C   
BRANCH  30  32
HETATM   32 N2   ATX X   1     -18.912  24.536   2.313  1.00 20.00    -0.346 N   
HETATM   33 C7   ATX X   1     -19.981  24.876   3.051  1.00 20.00     0.248 C   
HETATM   34 O1   ATX X   1     -20.343  24.247   4.036  1.00 20.00    -0.271 OA  
ATOM     35 H2   ATX X   1     -18.664  25.123   1.517  1.00  0.00     0.163 HD  
BRANCH  33  36
HETATM   36 C1   ATX X   1     -20.686  26.171   2.645  1.00 20.00     0.270 C   
HETATM   37 C8   ATX X   1     -21.173  26.915   3.885  1.00 20.00     0.050 C   
BRANCH  36  38
HETATM   38 N1   ATX X   1     -21.832  25.885   1.816  1.00 20.00    -0.067 N   
ATOM     39 H13  ATX X   1     -22.714  26.135   2.263  1.00  0.00     0.275 HD  
ATOM     40 H12  ATX X   1     -21.904  26.510   1.014  1.00  0.00     0.275 HD  
ATOM     41 H11  ATX X   1     -21.791  24.902   1.548  1.00  0.00     0.275 HD  
ENDBRANCH  36  38
ENDBRANCH  33  36
ENDBRANCH  30  32
BRANCH  25  42
HETATM   42 C10  ATX X   1     -13.988  24.617   0.483  1.00 20.00     0.066 C   
BRANCH  42  43
HETATM   43 C13  ATX X   1     -14.797  25.897   0.619  1.00 20.00    -0.056 A   
HETATM   44 C19  ATX X   1     -16.162  25.802   0.952  1.00 20.00     0.007 A   
HETATM   45 C21  ATX X   1     -16.949  26.954   1.063  1.00 20.00     0.001 A   
HETATM   46 C22  ATX X   1     -16.383  28.211   0.808  1.00 20.00     0.000 A   
HETATM   47 C20  ATX X   1     -15.022  28.312   0.474  1.00 20.00     0.001 A   
HETATM   48 C18  ATX X   1     -14.230  27.158   0.371  1.00 20.00     0.007 A   
ENDBRANCH  42  43
ENDBRANCH  25  42
HETATM   49 O7   ATX X   1     -13.055  21.781   1.671  1.00 20.00    -0.393 OA  
ATOM     50 H7   ATX X   1     -12.532  22.558   1.826  1.00  0.00     0.210 HD  
TORSDOF 20