instances/1AAQ/ligand.pdb
 OpenBabel10171817573D

 88 88  0  0  1  0  0  0  0  0999 V2000
   -5.7410   17.9380   -7.0390 N   0  0  0  0  0  0  0  0  0  0  0  0
   -5.8830   17.4740   -5.6800 C   0  0  2  0  0  0  0  0  0  0  0  0
   -9.0680   17.1150   -3.5730 C   0  0  1  0  0  0  0  0  0  0  0  0
   -8.6630   17.8220    0.2180 C   0  0  1  0  0  0  0  0  0  0  0  0
  -11.8840   16.4140    1.9720 C   0  0  0  0  0  0  0  0  0  0  0  0
  -11.2800   15.6530    5.7110 C   0  0  1  0  0  0  0  0  0  0  0  0
  -13.5190   12.9170    7.2560 C   0  0  1  0  0  0  0  0  0  0  0  0
   -7.2840   17.7850   -5.1510 C   0  0  0  0  0  0  0  0  0  0  0  0
   -7.8780   18.7950   -5.5030 O   0  0  0  0  0  0  0  0  0  0  0  0
   -4.8320   18.1790   -4.8280 C   0  0  0  0  0  0  0  0  0  0  0  0
  -10.0880   16.1150   -4.1410 C   0  0  0  0  0  0  0  0  0  0  0  0
   -7.6860   18.9390    0.6230 C   0  0  0  0  0  0  0  0  0  0  0  0
  -10.4320   16.5190    6.6690 C   0  0  0  0  0  0  0  0  0  0  0  0
  -14.1680   12.0520    6.1210 C   0  0  0  0  0  0  0  0  0  0  0  0
   -6.3150   18.8260   -0.0240 C   0  0  0  0  0  0  0  0  0  0  0  0
   -9.9680   15.7260    7.9080 C   0  0  0  0  0  0  0  0  0  0  0  0
  -15.2790   11.0900    6.6380 C   0  0  0  0  0  0  0  0  0  0  0  0
   -9.1670   17.0370    5.9540 C   0  0  0  0  0  0  0  0  0  0  0  0
  -14.8520   12.9270    5.0450 C   0  0  0  0  0  0  0  0  0  0  0  0
   -5.9580   19.6050   -1.1370 C   0  0  0  0  0  0  0  0  0  0  0  0
   -5.3680   17.9530    0.5460 C   0  0  0  0  0  0  0  0  0  0  0  0
   -4.6690   19.4940   -1.6820 C   0  0  0  0  0  0  0  0  0  0  0  0
   -4.0860   17.8370   -0.0040 C   0  0  0  0  0  0  0  0  0  0  0  0
   -3.7290   18.6210   -1.1100 C   0  0  0  0  0  0  0  0  0  0  0  0
  -10.7740   16.6120    0.9150 C   0  0  0  0  0  0  0  0  0  0  0  0
   -8.8180   16.8680   -2.0810 C   0  0  0  0  0  0  0  0  0  0  0  0
   -7.7640   16.9320   -4.2320 N   0  0  0  0  0  0  0  0  0  0  0  0
   -8.4350   15.7610   -1.7290 O   0  0  0  0  0  0  0  0  0  0  0  0
   -9.9260   17.8710    1.1670 C   0  0  2  0  0  0  0  0  0  0  0  0
   -8.9820   17.9020   -1.2370 N   0  0  0  0  0  0  0  0  0  0  0  0
  -10.7800   14.7100    3.1960 O   0  0  0  0  0  0  0  0  0  0  0  0
  -11.3700   15.7810    3.2710 C   0  0  0  0  0  0  0  0  0  0  0  0
  -13.5770   15.8440    6.4930 O   0  0  0  0  0  0  0  0  0  0  0  0
  -12.5960   15.1310    6.3280 C   0  0  0  0  0  0  0  0  0  0  0  0
  -11.6290   16.3670    4.4580 N   0  0  0  0  0  0  0  0  0  0  0  0
  -11.5110   11.4360    8.2750 O   0  0  0  0  0  0  0  0  0  0  0  0
  -12.8290   12.0770    8.4190 C   0  0  0  0  0  0  0  0  0  0  0  0
  -12.5390   13.8420    6.6570 N   0  0  0  0  0  0  0  0  0  0  0  0
  -13.0000   12.6640    9.7100 O   0  0  0  0  0  0  0  0  0  0  0  0
  -13.0560   11.6970   10.7740 C   0  0  0  0  0  0  0  0  0  0  0  0
  -10.8640   19.0150    1.0930 O   0  0  0  0  0  0  0  0  0  0  0  0
   -6.4351   17.4793   -7.6292 H   0  0  0  0  0  0  0  0  0  0  0  0
   -4.8053   17.7150   -7.3784 H   0  0  0  0  0  0  0  0  0  0  0  0
   -5.7448   16.4137   -5.6398 H   0  0  0  0  0  0  0  0  0  0  0  0
   -9.4704   18.0929   -3.7363 H   0  0  0  0  0  0  0  0  0  0  0  0
   -8.2145   16.8596    0.3506 H   0  0  0  0  0  0  0  0  0  0  0  0
  -12.6388   15.7782    1.5585 H   0  0  0  0  0  0  0  0  0  0  0  0
  -12.2673   17.3822    2.2181 H   0  0  0  0  0  0  0  0  0  0  0  0
  -10.6421   14.8193    5.5035 H   0  0  0  0  0  0  0  0  0  0  0  0
  -14.3214   13.4475    7.7248 H   0  0  0  0  0  0  0  0  0  0  0  0
   -4.9832   19.2371   -4.8783 H   0  0  0  0  0  0  0  0  0  0  0  0
   -3.8560   17.9403   -5.1958 H   0  0  0  0  0  0  0  0  0  0  0  0
   -4.9197   17.8541   -3.8123 H   0  0  0  0  0  0  0  0  0  0  0  0
   -9.7266   15.1178   -3.9996 H   0  0  0  0  0  0  0  0  0  0  0  0
  -10.2249   16.2999   -5.1860 H   0  0  0  0  0  0  0  0  0  0  0  0
  -11.0224   16.2312   -3.6328 H   0  0  0  0  0  0  0  0  0  0  0  0
   -8.1141   19.8786    0.3423 H   0  0  0  0  0  0  0  0  0  0  0  0
   -7.5379   18.8528    1.6792 H   0  0  0  0  0  0  0  0  0  0  0  0
  -11.0593   17.3294    6.9765 H   0  0  0  0  0  0  0  0  0  0  0  0
  -13.3451   11.4970    5.7214 H   0  0  0  0  0  0  0  0  0  0  0  0
   -9.3409   14.9161    7.5988 H   0  0  0  0  0  0  0  0  0  0  0  0
  -10.8217   15.3391    8.4241 H   0  0  0  0  0  0  0  0  0  0  0  0
   -9.4196   16.3727    8.5606 H   0  0  0  0  0  0  0  0  0  0  0  0
  -16.0917   11.6632    7.0329 H   0  0  0  0  0  0  0  0  0  0  0  0
  -14.8783   10.4627    7.4067 H   0  0  0  0  0  0  0  0  0  0  0  0
  -15.6301   10.4834    5.8295 H   0  0  0  0  0  0  0  0  0  0  0  0
   -8.5595   16.2073    5.6582 H   0  0  0  0  0  0  0  0  0  0  0  0
   -8.6130   17.6653    6.6198 H   0  0  0  0  0  0  0  0  0  0  0  0
   -9.4511   17.5977    5.0881 H   0  0  0  0  0  0  0  0  0  0  0  0
  -15.6664   13.4629    5.4859 H   0  0  0  0  0  0  0  0  0  0  0  0
  -15.2205   12.3021    4.2585 H   0  0  0  0  0  0  0  0  0  0  0  0
  -14.1424   13.6214    4.6461 H   0  0  0  0  0  0  0  0  0  0  0  0
   -6.6413   20.2570   -1.5529 H   0  0  0  0  0  0  0  0  0  0  0  0
   -5.6213   17.3943    1.3759 H   0  0  0  0  0  0  0  0  0  0  0  0
   -4.4107   20.0569   -2.5075 H   0  0  0  0  0  0  0  0  0  0  0  0
   -3.4058   17.1764    0.4034 H   0  0  0  0  0  0  0  0  0  0  0  0
   -2.7770   18.5568   -1.5033 H   0  0  0  0  0  0  0  0  0  0  0  0
  -10.1301   15.7576    0.9317 H   0  0  0  0  0  0  0  0  0  0  0  0
  -11.2522   16.7313   -0.0348 H   0  0  0  0  0  0  0  0  0  0  0  0
   -7.2196   16.1489   -3.9877 H   0  0  0  0  0  0  0  0  0  0  0  0
   -9.4700   17.9620    2.1307 H   0  0  0  0  0  0  0  0  0  0  0  0
   -9.3285   18.7508   -1.5959 H   0  0  0  0  0  0  0  0  0  0  0  0
  -12.0450   17.2586    4.4926 H   0  0  0  0  0  0  0  0  0  0  0  0
  -11.6697   13.4232    6.4615 H   0  0  0  0  0  0  0  0  0  0  0  0
  -13.1845   12.2020   11.7085 H   0  0  0  0  0  0  0  0  0  0  0  0
  -12.1453   11.1357   10.7941 H   0  0  0  0  0  0  0  0  0  0  0  0
  -13.8799   11.0342   10.6106 H   0  0  0  0  0  0  0  0  0  0  0  0
  -11.3222   19.0027    0.2381 H   0  0  0  0  0  0  0  0  0  0  0  0
  1  2  1  0  0  0  0
  1 42  1  0  0  0  0
  1 43  1  0  0  0  0
  2  8  1  0  0  0  0
  2 10  1  0  0  0  0
  2 44  1  1  0  0  0
  3 26  1  0  0  0  0
  3 45  1  6  0  0  0
  4 12  1  0  0  0  0
  4 29  1  0  0  0  0
  4 46  1  1  0  0  0
  5 32  1  0  0  0  0
  5 47  1  0  0  0  0
  5 48  1  0  0  0  0
  6 34  1  0  0  0  0
  6 13  1  0  0  0  0
  6 49  1  6  0  0  0
  7 37  1  0  0  0  0
  7 50  1  1  0  0  0
  8 27  1  0  0  0  0
  9  8  2  0  0  0  0
 10 51  1  0  0  0  0
 10 52  1  0  0  0  0
 10 53  1  0  0  0  0
 11  3  1  0  0  0  0
 11 54  1  0  0  0  0
 11 55  1  0  0  0  0
 11 56  1  0  0  0  0
 12 57  1  0  0  0  0
 12 58  1  0  0  0  0
 13 16  1  0  0  0  0
 13 59  1  0  0  0  0
 14 17  1  0  0  0  0
 14  7  1  0  0  0  0
 14 60  1  0  0  0  0
 15 21  2  0  0  0  0
 15 12  1  0  0  0  0
 16 61  1  0  0  0  0
 16 62  1  0  0  0  0
 16 63  1  0  0  0  0
 17 64  1  0  0  0  0
 17 65  1  0  0  0  0
 17 66  1  0  0  0  0
 18 13  1  0  0  0  0
 18 67  1  0  0  0  0
 18 68  1  0  0  0  0
 18 69  1  0  0  0  0
 19 14  1  0  0  0  0
 19 70  1  0  0  0  0
 19 71  1  0  0  0  0
 19 72  1  0  0  0  0
 20 15  1  0  0  0  0
 20 73  1  0  0  0  0
 21 74  1  0  0  0  0
 22 20  2  0  0  0  0
 22 24  1  0  0  0  0
 22 75  1  0  0  0  0
 23 21  1  0  0  0  0
 23 76  1  0  0  0  0
 24 23  2  0  0  0  0
 24 77  1  0  0  0  0
 25 29  1  0  0  0  0
 25  5  1  0  0  0  0
 25 78  1  0  0  0  0
 25 79  1  0  0  0  0
 26 28  2  0  0  0  0
 26 30  1  0  0  0  0
 27  3  1  0  0  0  0
 27 80  1  0  0  0  0
 29 81  1  1  0  0  0
 30  4  1  0  0  0  0
 30 82  1  0  0  0  0
 31 32  2  0  0  0  0
 32 35  1  0  0  0  0
 34 33  2  0  0  0  0
 34 38  1  0  0  0  0
 35  6  1  0  0  0  0
 35 83  1  0  0  0  0
 36 37  2  0  0  0  0
 37 39  1  0  0  0  0
 38  7  1  0  0  0  0
 38 84  1  0  0  0  0
 39 40  1  0  0  0  0
 40 85  1  0  0  0  0
 40 86  1  0  0  0  0
 40 87  1  0  0  0  0
 41 29  1  0  0  0  0
 41 88  1  0  0  0  0
M  END
$$$$
