REMARK WARNING: 32 MAX_TORS EXCEEDED!!!
REMARK  39 active torsions:
REMARK  status: ('A' for Active; 'I' for Inactive)
REMARK    1  A    between atoms: C1_1  and  C4_4 
REMARK    2  A    between atoms: C2_2  and  C4_4 
REMARK    3  A    between atoms: C3_3  and  C4_4 
REMARK    4  A    between atoms: C4_4  and  S1_5 
REMARK    5  A    between atoms: S1_5  and  C5_8 
REMARK    6  A    between atoms: C5_8  and  C6_9 
REMARK    7  A    between atoms: C6_9  and  C18_21 
REMARK    8  A    between atoms: C6_9  and  C7_10 
REMARK    9  A    between atoms: C7_10  and  C8_11 
REMARK       I    between atoms: C18_21  and  N1_23 
REMARK   10  A    between atoms: N1_23  and  C19_24 
REMARK   11  A    between atoms: C19_24  and  C23_28 
REMARK   12  A    between atoms: C19_24  and  C20_25 
REMARK   13  A    between atoms: C20_25  and  C21_26 
REMARK   14  A    between atoms: C20_25  and  C22_27 
REMARK       I    between atoms: C23_28  and  N2_30 
REMARK   15  A    between atoms: N2_30  and  C24_31 
REMARK   16  A    between atoms: C24_31  and  C25_32 
REMARK   17  A    between atoms: C24_31  and  C32_39 
REMARK   18  A    between atoms: C25_32  and  C26_33 
REMARK   19  A    between atoms: C32_39  and  O5_40 
REMARK   20  A    between atoms: C32_39  and  C33_41 
REMARK   21  A    between atoms: C33_41  and  C34_43 
REMARK   22  A    between atoms: C33_41  and  O6_42 
REMARK   23  A    between atoms: C34_43  and  N3_51 
REMARK   24  A    between atoms: C34_43  and  C35_44 
REMARK   25  A    between atoms: C35_44  and  C36_45 
REMARK       I    between atoms: N3_51  and  C42_52 
REMARK   26  A    between atoms: C42_52  and  C43_54 
REMARK   27  A    between atoms: C43_54  and  N4_58 
REMARK   28  A    between atoms: C43_54  and  C44_55 
REMARK   29  A    between atoms: C44_55  and  C46_57 
REMARK   30  A    between atoms: C44_55  and  C45_56 
REMARK       I    between atoms: N4_58  and  C47_59 
REMARK   31  A    between atoms: C47_59  and  C48_61 
REMARK   32  A    between atoms: C48_61  and  C60_73 
REMARK   33  A    between atoms: C48_61  and  C49_62 
REMARK   34  A    between atoms: C49_62  and  C50_63 
REMARK   35  A    between atoms: C60_73  and  S2_74 
REMARK   36  A    between atoms: S2_74  and  C61_77 
REMARK   37  A    between atoms: C61_77  and  C62_78 
REMARK   38  A    between atoms: C61_77  and  C64_80 
REMARK   39  A    between atoms: C61_77  and  C63_79 
ROOT
HETATM    1  C32 ATX X   1      13.374  23.754   3.712  1.00 20.00     0.082 C 
HETATM    2  H40 ATX X   1      13.976  23.000   3.204  1.00 20.00     0.090 H 
ENDROOT
BRANCH   1   3
HETATM    3  C24 ATX X   1      11.973  23.154   4.124  1.00 20.00     0.043 C 
HETATM    4  H32 ATX X   1      12.007  22.300   4.800  1.00 20.00     0.077 H 
BRANCH   3   5
HETATM    5  C25 ATX X   1      11.334  22.810   2.780  1.00 20.00    -0.020 C 
HETATM    6  H34 ATX X   1      11.086  23.747   2.282  1.00 20.00     0.043 H 
HETATM    7  H33 ATX X   1      12.072  22.200   2.260  1.00 20.00     0.043 H 
BRANCH   5   8
HETATM    8  C26 ATX X   1      10.085  21.970   2.821  1.00 20.00    -0.056 A 
HETATM    9  C27 ATX X   1      10.136  20.584   2.644  1.00 20.00    -0.077 A 
HETATM   10  C28 ATX X   1       8.920  19.819   2.695  1.00 20.00    -0.082 A 
HETATM   11  H35 ATX X   1      11.090  20.087   2.469  1.00 20.00     0.084 H 
HETATM   12  H36 ATX X   1       8.951  18.738   2.560  1.00 20.00     0.083 H 
HETATM   13  C29 ATX X   1       7.682  20.467   2.920  1.00 20.00    -0.083 A 
HETATM   14  H37 ATX X   1       6.761  19.885   2.956  1.00 20.00     0.083 H 
HETATM   15  C30 ATX X   1       7.639  21.870   3.098  1.00 20.00    -0.082 A 
HETATM   16  H38 ATX X   1       6.687  22.372   3.272  1.00 20.00     0.083 H 
HETATM   17  C31 ATX X   1       8.827  22.611   3.050  1.00 20.00    -0.077 A 
HETATM   18  H39 ATX X   1       8.792  23.692   3.189  1.00 20.00     0.084 H 
ENDBRANCH   5   8
ENDBRANCH   3   5
BRANCH   3  19
HETATM   19  N2  ATX X   1      11.202  24.304   4.768  1.00 20.00    -0.352 N 
HETATM   20  C23 ATX X   1      10.714  24.125   6.007  1.00 20.00     0.241 C 
HETATM   21  O4  ATX X   1      10.865  23.074   6.623  1.00 20.00    -0.271 OA
HETATM   22  H31 ATX X   1      11.063  25.175   4.276  1.00 20.00     0.163 HD
BRANCH  20  23
HETATM   23  C19 ATX X   1       9.949  25.348   6.570  1.00 20.00     0.092 C 
HETATM   24  H23 ATX X   1      10.416  26.294   6.294  1.00 20.00     0.088 H 
BRANCH  23  25
HETATM   25  C20 ATX X   1      10.024  25.455   8.094  1.00 20.00    -0.033 C 
HETATM   26  H24 ATX X   1       9.544  24.529   8.412  1.00 20.00     0.042 H 
BRANCH  25  27
HETATM   27  C21 ATX X   1       9.163  26.476   8.835  1.00 20.00    -0.071 C 
HETATM   28  H25 ATX X   1       8.197  26.031   9.072  1.00 20.00     0.028 H 
HETATM   29  H27 ATX X   1       9.014  27.352   8.204  1.00 20.00     0.028 H 
HETATM   30  H26 ATX X   1       9.662  26.772   9.758  1.00 20.00     0.028 H 
ENDBRANCH  25  27
BRANCH  25  31
HETATM   31  C22 ATX X   1      11.502  25.556   8.531  1.00 20.00    -0.071 C 
HETATM   32  H30 ATX X   1      11.904  24.555   8.690  1.00 20.00     0.028 H 
HETATM   33  H28 ATX X   1      12.077  26.058   7.753  1.00 20.00     0.028 H 
HETATM   34  H29 ATX X   1      11.569  26.126   9.457  1.00 20.00     0.028 H 
ENDBRANCH  25  31
ENDBRANCH  23  25
BRANCH  23  35
HETATM   35  N1  ATX X   1       8.625  25.316   5.964  1.00 20.00    -0.347 N 
HETATM   36  H22 ATX X   1       8.064  24.479   6.023  1.00 20.00     0.163 HD
HETATM   37  C18 ATX X   1       8.154  26.389   5.333  1.00 20.00     0.223 C 
HETATM   38  O3  ATX X   1       8.807  27.434   5.242  1.00 20.00    -0.273 OA
BRANCH  37  39
HETATM   39  C6  ATX X   1       6.744  26.281   4.703  1.00 20.00     0.040 C 
HETATM   40  H12 ATX X   1       6.399  25.248   4.756  1.00 20.00     0.056 H 
BRANCH  39  41
HETATM   41  C5  ATX X   1       5.771  27.211   5.411  1.00 20.00     0.041 C 
HETATM   42  H11 ATX X   1       5.097  27.590   4.643  1.00 20.00     0.057 H 
HETATM   43  H10 ATX X   1       6.445  27.904   5.915  1.00 20.00     0.057 H 
BRANCH  41  44
HETATM   44  S1  ATX X   1       4.713  26.644   6.783  1.00 20.00     0.152 S 
HETATM   45  O2  ATX X   1       4.000  25.535   6.748  1.00 20.00    -0.227 OA
HETATM   46  O1  ATX X   1       5.677  26.840   7.809  1.00 20.00    -0.227 OA
BRANCH  44  47
HETATM   47  C4  ATX X   1       3.859  28.214   7.049  1.00 20.00     0.053 C 
BRANCH  47  48
HETATM   48  C2  ATX X   1       3.322  28.655   5.729  1.00 20.00    -0.057 C 
HETATM   49  H5  ATX X   1       4.080  29.235   5.203  1.00 20.00     0.029 H 
HETATM   50  H6  ATX X   1       3.055  27.781   5.135  1.00 20.00     0.029 H 
HETATM   51  H4  ATX X   1       2.437  29.272   5.885  1.00 20.00     0.029 H 
ENDBRANCH  47  48
BRANCH  47  52
HETATM   52  C3  ATX X   1       2.650  28.042   7.901  1.00 20.00    -0.057 C 
HETATM   53  H7  ATX X   1       1.808  27.738   7.279  1.00 20.00     0.029 H 
HETATM   54  H8  ATX X   1       2.840  27.276   8.653  1.00 20.00     0.029 H 
HETATM   55  H9  ATX X   1       2.415  28.985   8.394  1.00 20.00     0.029 H 
ENDBRANCH  47  52
BRANCH  47  56
HETATM   56  C1  ATX X   1       4.572  29.419   7.558  1.00 20.00    -0.057 C 
HETATM   57  H3  ATX X   1       4.790  29.292   8.618  1.00 20.00     0.029 H 
HETATM   58  H2  ATX X   1       3.944  30.299   7.419  1.00 20.00     0.029 H 
HETATM   59  H1  ATX X   1       5.505  29.548   7.009  1.00 20.00     0.029 H 
ENDBRANCH  47  56
ENDBRANCH  44  47
ENDBRANCH  41  44
ENDBRANCH  39  41
BRANCH  39  60
HETATM   60  C7  ATX X   1       6.869  26.858   3.247  1.00 20.00    -0.028 C 
HETATM   61  H14 ATX X   1       6.678  27.931   3.252  1.00 20.00     0.041 H 
HETATM   62  H13 ATX X   1       7.872  26.698   2.852  1.00 20.00     0.041 H 
BRANCH  60  63
HETATM   63  C8  ATX X   1       5.803  26.127   2.369  1.00 20.00    -0.046 A 
HETATM   64  C17 ATX X   1       5.959  26.088   0.967  1.00 20.00    -0.020 A 
HETATM   65  C12 ATX X   1       4.958  25.409   0.209  1.00 20.00    -0.025 A 
HETATM   66  C16 ATX X   1       7.068  26.695   0.308  1.00 20.00    -0.072 A 
HETATM   67  C11 ATX X   1       3.871  24.817   0.871  1.00 20.00    -0.072 A 
HETATM   68  C13 ATX X   1       5.084  25.345  -1.202  1.00 20.00    -0.072 A 
HETATM   69  C10 ATX X   1       3.739  24.873   2.278  1.00 20.00    -0.082 A 
HETATM   70  H17 ATX X   1       3.110  24.301   0.286  1.00 20.00     0.084 H 
HETATM   71  H16 ATX X   1       2.885  24.405   2.768  1.00 20.00     0.083 H 
HETATM   72  C9  ATX X   1       4.715  25.535   3.041  1.00 20.00    -0.076 A 
HETATM   73  H15 ATX X   1       4.633  25.590   4.127  1.00 20.00     0.084 H 
HETATM   74  H18 ATX X   1       4.324  24.827  -1.787  1.00 20.00     0.084 H 
HETATM   75  C14 ATX X   1       6.191  25.949  -1.865  1.00 20.00    -0.082 A 
HETATM   76  C15 ATX X   1       7.171  26.618  -1.117  1.00 20.00    -0.082 A 
HETATM   77  H19 ATX X   1       6.276  25.891  -2.950  1.00 20.00     0.083 H 
HETATM   78  H20 ATX X   1       8.017  27.082  -1.625  1.00 20.00     0.083 H 
HETATM   79  H21 ATX X   1       7.832  27.214   0.886  1.00 20.00     0.084 H 
ENDBRANCH  60  63
ENDBRANCH  39  60
ENDBRANCH  37  39
ENDBRANCH  23  35
ENDBRANCH  20  23
ENDBRANCH   3  19
ENDBRANCH   1   3
BRANCH   1  80
HETATM   80  O5  ATX X   1      13.026  24.882   2.858  1.00 20.00    -0.391 OA
HETATM   81  H41 ATX X   1      12.831  24.566   1.973  1.00 20.00     0.210 HD
ENDBRANCH   1  80
BRANCH   1  82
HETATM   82  C33 ATX X   1      14.359  24.102   4.865  1.00 20.00     0.082 C 
HETATM   83  H42 ATX X   1      13.667  24.774   5.372  1.00 20.00     0.090 H 
BRANCH  82  84
HETATM   84  C34 ATX X   1      14.736  23.095   5.973  1.00 20.00     0.043 C 
HETATM   85  H44 ATX X   1      13.797  22.669   6.325  1.00 20.00     0.077 H 
BRANCH  84  86
HETATM   86  N3  ATX X   1      15.625  22.059   5.413  1.00 20.00    -0.352 N 
HETATM   87  H52 ATX X   1      16.589  22.300   5.231  1.00 20.00     0.163 HD
HETATM   88  C42 ATX X   1      15.216  20.813   5.134  1.00 20.00     0.241 C 
HETATM   89  O7  ATX X   1      14.098  20.285   5.268  1.00 20.00    -0.271 OA
BRANCH  88  90
HETATM   90  C43 ATX X   1      16.303  19.888   4.555  1.00 20.00     0.092 C 
HETATM   91  H53 ATX X   1      17.037  20.450   3.978  1.00 20.00     0.088 H 
BRANCH  90  92
HETATM   92  N4  ATX X   1      16.944  19.184   5.711  1.00 20.00    -0.347 N 
HETATM   93  H61 ATX X   1      16.389  18.845   6.484  1.00 20.00     0.163 HD
HETATM   94  C47 ATX X   1      18.298  19.012   5.693  1.00 20.00     0.223 C 
HETATM   95  O8  ATX X   1      19.017  19.426   4.770  1.00 20.00    -0.273 OA
BRANCH  94  96
HETATM   96  C48 ATX X   1      18.846  18.292   6.906  1.00 20.00     0.040 C 
HETATM   97  H62 ATX X   1      18.033  17.692   7.315  1.00 20.00     0.056 H 
BRANCH  96  98
HETATM   98  C60 ATX X   1      20.042  17.328   6.647  1.00 20.00     0.041 C 
HETATM   99  H73 ATX X   1      20.768  17.819   6.000  1.00 20.00     0.057 H 
HETATM  100  H72 ATX X   1      20.508  17.074   7.599  1.00 20.00     0.057 H 
BRANCH  98 101
HETATM  101  S2  ATX X   1      19.451  15.799   5.843  1.00 20.00     0.152 S 
HETATM  102  O10 ATX X   1      19.263  15.715   4.290  1.00 20.00    -0.227 OA
HETATM  103  O9  ATX X   1      17.990  15.281   6.377  1.00 20.00    -0.227 OA
BRANCH 101 104
HETATM  104  C61 ATX X   1      20.651  14.603   6.396  1.00 20.00     0.053 C 
BRANCH 104 105
HETATM  105  C62 ATX X   1      22.062  15.072   6.575  1.00 20.00    -0.057 C 
HETATM  106  H74 ATX X   1      22.690  14.636   5.798  1.00 20.00     0.029 H 
HETATM  107  H75 ATX X   1      22.096  16.159   6.502  1.00 20.00     0.029 H 
HETATM  108  H76 ATX X   1      22.427  14.761   7.554  1.00 20.00     0.029 H 
ENDBRANCH 104 105
BRANCH 104 109
HETATM  109  C64 ATX X   1      20.382  13.120   5.936  1.00 20.00    -0.057 C 
HETATM  110  H80 ATX X   1      19.488  13.090   5.313  1.00 20.00     0.029 H 
HETATM  111  H81 ATX X   1      21.235  12.756   5.364  1.00 20.00     0.029 H 
HETATM  112  H82 ATX X   1      20.235  12.488   6.812  1.00 20.00     0.029 H 
ENDBRANCH 104 109
BRANCH 104 113
HETATM  113  C63 ATX X   1      20.648  14.037   7.883  1.00 20.00    -0.057 C 
HETATM  114  H77 ATX X   1      20.098  14.720   8.530  1.00 20.00     0.029 H 
HETATM  115  H78 ATX X   1      20.169  13.058   7.899  1.00 20.00     0.029 H 
HETATM  116  H79 ATX X   1      21.674  13.946   8.240  1.00 20.00     0.029 H 
ENDBRANCH 104 113
ENDBRANCH 101 104
ENDBRANCH  98 101
ENDBRANCH  96  98
BRANCH  96 117
HETATM  117  C49 ATX X   1      19.442  19.416   7.788  1.00 20.00    -0.028 C 
HETATM  118  H63 ATX X   1      18.709  20.218   7.873  1.00 20.00     0.041 H 
HETATM  119  H64 ATX X   1      20.357  19.786   7.326  1.00 20.00     0.041 H 
BRANCH 117 120
HETATM  120  C50 ATX X   1      19.760  18.900   9.178  1.00 20.00    -0.046 A 
HETATM  121  C59 ATX X   1      18.817  18.155   9.903  1.00 20.00    -0.020 A 
HETATM  122  C58 ATX X   1      17.550  17.878   9.335  1.00 20.00    -0.072 A 
HETATM  123  C54 ATX X   1      19.127  17.673  11.218  1.00 20.00    -0.025 A 
HETATM  124  H71 ATX X   1      17.299  18.238   8.337  1.00 20.00     0.084 H 
HETATM  125  C57 ATX X   1      16.606  17.119  10.091  1.00 20.00    -0.082 A 
HETATM  126  H70 ATX X   1      15.627  16.899   9.666  1.00 20.00     0.083 H 
HETATM  127  C56 ATX X   1      16.927  16.651  11.383  1.00 20.00    -0.082 A 
HETATM  128  C55 ATX X   1      18.188  16.922  11.965  1.00 20.00    -0.072 A 
HETATM  129  H69 ATX X   1      16.192  16.072  11.941  1.00 20.00     0.083 H 
HETATM  130  H68 ATX X   1      18.430  16.561  12.964  1.00 20.00     0.084 H 
HETATM  131  C53 ATX X   1      20.380  17.959  11.765  1.00 20.00    -0.072 A 
HETATM  132  H67 ATX X   1      20.626  17.599  12.764  1.00 20.00     0.084 H 
HETATM  133  C52 ATX X   1      21.324  18.703  11.045  1.00 20.00    -0.082 A 
HETATM  134  H66 ATX X   1      22.296  18.915  11.491  1.00 20.00     0.083 H 
HETATM  135  C51 ATX X   1      21.033  19.181   9.749  1.00 20.00    -0.076 A 
HETATM  136  H65 ATX X   1      21.773  19.757   9.193  1.00 20.00     0.084 H 
ENDBRANCH 117 120
ENDBRANCH  96 117
ENDBRANCH  94  96
ENDBRANCH  90  92
BRANCH  90 137
HETATM  137  C44 ATX X   1      15.607  18.816   3.644  1.00 20.00    -0.033 C 
HETATM  138  H54 ATX X   1      15.031  18.213   4.346  1.00 20.00     0.042 H 
BRANCH 137 139
HETATM  139  C46 ATX X   1      16.483  17.757   2.992  1.00 20.00    -0.071 C 
HETATM  140  H60 ATX X   1      16.648  18.015   1.946  1.00 20.00     0.028 H 
HETATM  141  H59 ATX X   1      15.989  16.787   3.054  1.00 20.00     0.028 H 
HETATM  142  H58 ATX X   1      17.441  17.710   3.510  1.00 20.00     0.028 H 
ENDBRANCH 137 139
BRANCH 137 143
HETATM  143  C45 ATX X   1      14.689  19.499   2.641  1.00 20.00    -0.071 C 
HETATM  144  H57 ATX X   1      14.397  18.785   1.871  1.00 20.00     0.028 H 
HETATM  145  H55 ATX X   1      13.799  19.864   3.154  1.00 20.00     0.028 H 
HETATM  146  H56 ATX X   1      15.212  20.337   2.181  1.00 20.00     0.028 H 
ENDBRANCH 137 143
ENDBRANCH  90 137
ENDBRANCH  88  90
ENDBRANCH  84  86
BRANCH  84 147
HETATM  147  C35 ATX X   1      15.421  23.736   7.213  1.00 20.00    -0.020 C 
HETATM  148  H46 ATX X   1      16.341  24.218   6.882  1.00 20.00     0.043 H 
HETATM  149  H45 ATX X   1      14.700  24.436   7.636  1.00 20.00     0.043 H 
BRANCH 147 150
HETATM  150  C36 ATX X   1      15.769  22.760   8.319  1.00 20.00    -0.056 A 
HETATM  151  C37 ATX X   1      14.875  22.363   9.329  1.00 20.00    -0.077 A 
HETATM  152  C38 ATX X   1      15.300  21.431  10.324  1.00 20.00    -0.082 A 
HETATM  153  H47 ATX X   1      13.862  22.765   9.352  1.00 20.00     0.084 H 
HETATM  154  C39 ATX X   1      16.609  20.922  10.279  1.00 20.00    -0.083 A 
HETATM  155  H48 ATX X   1      14.615  21.117  11.112  1.00 20.00     0.083 H 
HETATM  156  H49 ATX X   1      16.934  20.208  11.036  1.00 20.00     0.083 H 
HETATM  157  C40 ATX X   1      17.509  21.322   9.268  1.00 20.00    -0.082 A 
HETATM  158  H50 ATX X   1      18.524  20.925   9.246  1.00 20.00     0.083 H 
HETATM  159  C41 ATX X   1      17.080  22.247   8.280  1.00 20.00    -0.077 A 
HETATM  160  H51 ATX X   1      17.765  22.560   7.492  1.00 20.00     0.084 H 
ENDBRANCH 147 150
ENDBRANCH  84 147
ENDBRANCH  82  84
BRANCH  82 161
HETATM  161  O6  ATX X   1      15.558  24.713   4.423  1.00 20.00    -0.391 OA
HETATM  162  H43 ATX X   1      15.796  25.424   5.023  1.00 20.00     0.210 HD
ENDBRANCH  82 161
ENDBRANCH   1  82
TORSDOF 39
