REMARK  19 active torsions:
REMARK  status: ('A' for Active; 'I' for Inactive)
REMARK    1  A    between atoms: O1_4  and  C10_24 
REMARK    2  A    between atoms: O1_4  and  C6_19 
REMARK    3  A    between atoms: S1_5  and  C12_26 
REMARK    4  A    between atoms: S1_5  and  C27_41 
REMARK       I    between atoms: N2_7  and  C11_25 
REMARK    5  A    between atoms: N2_7  and  C26_40 
REMARK    6  A    between atoms: O2_8  and  C15_29 
REMARK       I    between atoms: N3_11  and  C13_27 
REMARK    7  A    between atoms: N3_11  and  C14_28 
REMARK       I    between atoms: N4_14  and  C17_31 
REMARK    8  A    between atoms: N5_17  and  C22_36 
REMARK       I    between atoms: N5_17  and  C21_35 
REMARK    9  A    between atoms: C10_24  and  C11_25 
REMARK   10  A    between atoms: C12_26  and  C26_40 
REMARK   11  A    between atoms: C13_27  and  C26_40 
REMARK   12  A    between atoms: C14_28  and  C15_29 
REMARK   13  A    between atoms: C14_28  and  C16_30 
REMARK   14  A    between atoms: C15_29  and  C17_31 
REMARK   15  A    between atoms: C16_30  and  C28_42 
REMARK   16  A    between atoms: C18_32  and  C21_35 
REMARK   17  A    between atoms: C22_36  and  C24_38 
REMARK   18  A    between atoms: C22_36  and  C25_39 
REMARK   19  A    between atoms: C22_36  and  C23_37 
ROOT
HETATM    1  C14 ATX X   1       5.350   0.082  14.274  1.00 20.00     0.049 C 
HETATM    2  H11 ATX X   1       5.427  -0.878  13.760  1.00 20.00     0.077 H 
ENDROOT
BRANCH   1   3
HETATM    3  C15 ATX X   1       4.705  -0.180  15.642  1.00 20.00     0.132 C 
HETATM    4  H12 ATX X   1       3.620  -0.263  15.574  1.00 20.00     0.101 H 
BRANCH   3   5
HETATM    5  C17 ATX X   1       5.339  -1.386  16.330  1.00 20.00     0.252 C 
HETATM    6  O4  ATX X   1       6.324  -1.234  17.045  1.00 20.00    -0.270 OA
HETATM    7  N4  ATX X   1       4.742  -2.565  16.064  1.00 20.00    -0.327 N 
HETATM    8  C20 ATX X   1       3.544  -2.664  15.224  1.00 20.00     0.040 C 
HETATM    9  C18 ATX X   1       5.373  -3.819  16.506  1.00 20.00     0.100 C 
HETATM   10  H29 ATX X   1       3.705  -2.186  14.257  1.00 20.00     0.080 H 
HETATM   11  H28 ATX X   1       2.687  -2.203  15.712  1.00 20.00     0.080 H 
HETATM   12  S2  ATX X   1       3.263  -4.440  14.973  1.00 20.00    -0.147 SA
HETATM   13  C19 ATX X   1       4.427  -4.993  16.258  1.00 20.00     0.005 C 
HETATM   14  H26 ATX X   1       3.861  -5.207  17.164  1.00 20.00     0.052 H 
HETATM   15  H27 ATX X   1       4.934  -5.915  15.968  1.00 20.00     0.052 H 
HETATM   16  H13 ATX X   1       5.597  -3.754  17.573  1.00 20.00     0.089 H 
BRANCH   9  17
HETATM   17  C21 ATX X   1       6.653  -3.979  15.741  1.00 20.00     0.242 C 
HETATM   18  O5  ATX X   1       6.746  -3.574  14.588  1.00 20.00    -0.271 OA
HETATM   19  N5  ATX X   1       7.637  -4.575  16.403  1.00 20.00    -0.351 N 
HETATM   20  H3  ATX X   1       7.441  -4.932  17.320  1.00 20.00     0.163 HD
BRANCH  19  21
HETATM   21  C22 ATX X   1       9.013  -4.639  15.892  1.00 20.00     0.022 C 
BRANCH  21  22
HETATM   22  C24 ATX X   1       9.097  -5.567  14.678  1.00 20.00    -0.054 C 
HETATM   23  H34 ATX X   1       8.454  -5.241  13.864  1.00 20.00     0.030 H 
HETATM   24  H35 ATX X   1       8.795  -6.582  14.938  1.00 20.00     0.030 H 
HETATM   25  H33 ATX X   1      10.113  -5.614  14.289  1.00 20.00     0.030 H 
ENDBRANCH  21  22
BRANCH  21  26
HETATM   26  C25 ATX X   1       9.880  -5.183  17.021  1.00 20.00    -0.054 C 
HETATM   27  H37 ATX X   1       9.487  -6.117  17.421  1.00 20.00     0.030 H 
HETATM   28  H36 ATX X   1      10.897  -5.385  16.679  1.00 20.00     0.030 H 
HETATM   29  H38 ATX X   1       9.956  -4.474  17.846  1.00 20.00     0.030 H 
ENDBRANCH  21  26
BRANCH  21  30
HETATM   30  C23 ATX X   1       9.556  -3.249  15.542  1.00 20.00    -0.054 C 
HETATM   31  H32 ATX X   1       9.037  -2.794  14.699  1.00 20.00     0.030 H 
HETATM   32  H30 ATX X   1      10.609  -3.299  15.265  1.00 20.00     0.030 H 
HETATM   33  H31 ATX X   1       9.470  -2.559  16.382  1.00 20.00     0.030 H 
ENDBRANCH  21  30
ENDBRANCH  19  21
ENDBRANCH   9  17
ENDBRANCH   3   5
BRANCH   3  34
HETATM   34  O2  ATX X   1       4.949   0.934  16.427  1.00 20.00    -0.384 OA
HETATM   35  H4  ATX X   1       5.877   0.783  16.664  1.00 20.00     0.210 HD
ENDBRANCH   3  34
ENDBRANCH   1   3
BRANCH   1  36
HETATM   36  C16 ATX X   1       6.775   0.654  14.347  1.00 20.00    -0.019 C 
HETATM   37  H24 ATX X   1       7.437  -0.007  14.910  1.00 20.00     0.043 H 
HETATM   38  H25 ATX X   1       6.759   1.590  14.911  1.00 20.00     0.043 H 
BRANCH  36  39
HETATM   39  C28 ATX X   1       7.372   0.900  12.976  1.00 20.00    -0.056 A 
HETATM   40  C33 ATX X   1       7.899  -0.146  12.245  1.00 20.00    -0.077 A 
HETATM   41  C32 ATX X   1       8.437   0.066  10.993  1.00 20.00    -0.082 A 
HETATM   42  H19 ATX X   1       7.884  -1.138  12.675  1.00 20.00     0.084 H 
HETATM   43  H18 ATX X   1       8.849  -0.762  10.435  1.00 20.00     0.083 H 
HETATM   44  C31 ATX X   1       8.465   1.319  10.446  1.00 20.00    -0.083 A 
HETATM   45  H17 ATX X   1       8.887   1.478   9.463  1.00 20.00     0.083 H 
HETATM   46  C30 ATX X   1       7.949   2.368  11.171  1.00 20.00    -0.082 A 
HETATM   47  H16 ATX X   1       7.975   3.365  10.758  1.00 20.00     0.083 H 
HETATM   48  C29 ATX X   1       7.401   2.166  12.426  1.00 20.00    -0.077 A 
HETATM   49  H15 ATX X   1       6.993   3.000  12.984  1.00 20.00     0.084 H 
ENDBRANCH  36  39
ENDBRANCH   1  36
BRANCH   1  50
HETATM   50  N3  ATX X   1       4.496   0.982  13.492  1.00 20.00    -0.351 N 
HETATM   51  C13 ATX X   1       3.783   0.542  12.457  1.00 20.00     0.241 C 
HETATM   52  O6  ATX X   1       3.758  -0.629  12.111  1.00 20.00    -0.271 OA
HETATM   53  H2  ATX X   1       4.476   1.951  13.750  1.00 20.00     0.163 HD
BRANCH  51  54
HETATM   54  C26 ATX X   1       3.028   1.603  11.696  1.00 20.00     0.097 C 
HETATM   55  H14 ATX X   1       2.537   2.226  12.444  1.00 20.00     0.088 H 
BRANCH  54  56
HETATM   56  N2  ATX X   1       3.955   2.384  10.893  1.00 20.00    -0.345 N 
HETATM   57  H1  ATX X   1       4.542   1.915  10.237  1.00 20.00     0.163 HD
HETATM   58  C11 ATX X   1       4.067   3.683  11.106  1.00 20.00     0.242 C 
HETATM   59  O3  ATX X   1       3.327   4.297  11.852  1.00 20.00    -0.271 OA
BRANCH  58  60
HETATM   60  C10 ATX X   1       5.140   4.375  10.352  1.00 20.00     0.099 C 
HETATM   61  H20 ATX X   1       4.908   5.440  10.280  1.00 20.00     0.089 H 
HETATM   62  H21 ATX X   1       6.065   4.272  10.920  1.00 20.00     0.089 H 
BRANCH  60  63
HETATM   63  O1  ATX X   1       5.235   3.791   9.082  1.00 20.00    -0.341 OA
BRANCH  63  64
HETATM   64  C6  ATX X   1       6.352   4.170   8.347  1.00 20.00     0.080 A 
HETATM   65  C3  ATX X   1       6.886   3.273   7.363  1.00 20.00     0.010 A 
HETATM   66  C2  ATX X   1       6.303   2.017   7.116  1.00 20.00    -0.055 A 
HETATM   67  C4  ATX X   1       7.991   3.592   6.613  1.00 20.00    -0.008 A 
HETATM   68  H6  ATX X   1       5.462   1.763   7.709  1.00 20.00     0.087 H 
HETATM   69  C1  ATX X   1       6.848   1.181   6.159  1.00 20.00    -0.022 A 
HETATM   70  H5  ATX X   1       6.383   0.216   6.001  1.00 20.00     0.111 H 
HETATM   71  N1  ATX X   1       7.907   1.459   5.427  1.00 20.00    -0.374 N 
HETATM   72  C5  ATX X   1       8.468   2.649   5.645  1.00 20.00    -0.013 A 
ATOM     73  H1  ATX X   1       8.275   0.805   4.736  1.00  0.00     0.164 HD
HETATM   74  H7  ATX X   1       9.336   2.914   5.059  1.00 20.00     0.112 H 
HETATM   75  C9  ATX X   1       8.629   4.846   6.816  1.00 20.00    -0.071 A 
HETATM   76  C8  ATX X   1       8.109   5.715   7.774  1.00 20.00    -0.079 A 
HETATM   77  H10 ATX X   1       9.509   5.125   6.251  1.00 20.00     0.084 H 
HETATM   78  H9  ATX X   1       8.607   6.660   7.934  1.00 20.00     0.083 H 
HETATM   79  C7  ATX X   1       7.000   5.388   8.521  1.00 20.00    -0.050 A 
HETATM   80  H8  ATX X   1       6.644   6.089   9.258  1.00 20.00     0.087 H 
ENDBRANCH  63  64
ENDBRANCH  60  63
ENDBRANCH  58  60
ENDBRANCH  54  56
BRANCH  54  81
HETATM   81  C12 ATX X   1       1.944   1.001  10.835  1.00 20.00     0.003 C 
HETATM   82  H22 ATX X   1       2.302   0.156  10.249  1.00 20.00     0.052 H 
HETATM   83  H23 ATX X   1       1.512   1.728  10.147  1.00 20.00     0.052 H 
BRANCH  81  84
HETATM   84  S1  ATX X   1       0.668   0.435  11.993  1.00 20.00    -0.171 SA
BRANCH  84  85
HETATM   85  C27 ATX X   1      -0.158   2.056  12.160  1.00 20.00    -0.035 C 
HETATM   86  H40 ATX X   1      -0.541   2.377  11.191  1.00 20.00     0.041 H 
HETATM   87  H39 ATX X   1      -0.988   1.969  12.855  1.00 20.00     0.041 H 
HETATM   88  H41 ATX X   1       0.538   2.811  12.523  1.00 20.00     0.041 H 
ENDBRANCH  84  85
ENDBRANCH  81  84
ENDBRANCH  54  81
ENDBRANCH  51  54
ENDBRANCH   1  50
TORSDOF 19
