REMARK  10 active torsions:
REMARK  status: ('A' for Active; 'I' for Inactive)
REMARK       I    between atoms: N1_1  and  C3_5 
REMARK       I    between atoms: N1_1  and  C6_8 
REMARK    1  A    between atoms: C1_3  and  O4_44 
REMARK    2  A    between atoms: C1_3  and  C6_8 
REMARK    3  A    between atoms: C2_4  and  C8_11 
REMARK       I    between atoms: C2_4  and  C10_13 
REMARK       I    between atoms: C2_4  and  C45_68 
REMARK       I    between atoms: C3_5  and  C39_60 
REMARK       I    between atoms: C3_5  and  C7_10 
REMARK       I    between atoms: C4_6  and  C27_36 
REMARK       I    between atoms: C4_6  and  C9_12 
REMARK       I    between atoms: C4_6  and  N4_42 
REMARK    4  A    between atoms: C5_7  and  C18_23 
REMARK       I    between atoms: C5_7  and  N5_46 
REMARK    5  A    between atoms: C5_7  and  C11_14 
REMARK    6  A    between atoms: C7_10  and  C12_17 
REMARK    7  A    between atoms: C9_12  and  C13_18 
REMARK       A    between atoms: C10_13  and  C27_36 
REMARK       I    between atoms: C10_13  and  O2_15 
REMARK       I    between atoms: C11_14  and  C15_20 
REMARK       I    between atoms: C18_23  and  N6_50 
REMARK       I    between atoms: C27_36  and  O3_37 
REMARK    8  A    between atoms: C28_39  and  C40_63 
REMARK    9  A    between atoms: C28_39  and  N6_50 
REMARK   10  A    between atoms: C29_40  and  O4_44 
REMARK       I    between atoms: N4_42  and  C39_60 
REMARK       I    between atoms: N5_46  and  C45_68 
ROOT
HETATM    1  C4  ATX X   1       5.881  -0.001  13.808  1.00 20.00     0.116 C 
ENDROOT
HETATM    2  C27 ATX X   1       5.592  -0.511  15.204  1.00 20.00     0.170 C 
HETATM    3  O3  ATX X   1       5.225   0.377  16.238  1.00 20.00    -0.391 OA
ATOM      4  H3  ATX X   1       5.044   0.057  17.114  1.00  0.00     0.210 HD
HETATM    5  C10 ATX X   1       4.426  -1.543  15.170  1.00 20.00     0.162 C 
HETATM    6  O2  ATX X   1       3.249  -0.875  15.134  1.00 20.00    -0.392 OA
ATOM      7  H2  ATX X   1       3.234  -0.143  14.529  1.00  0.00     0.210 HD
HETATM    8  C2  ATX X   1       4.451  -2.730  16.152  1.00 20.00     0.112 C 
BRANCH   8   9
HETATM    9  C8  ATX X   1       3.124  -3.441  16.281  1.00 20.00    -0.007 C 
HETATM   10  C14 ATX X   1       2.553  -3.986  14.933  1.00 20.00     0.010 C 
HETATM   11  C16 ATX X   1       3.204  -4.586  17.345  1.00 20.00     0.010 C 
ENDBRANCH   8   9
HETATM   12  C45 ATX X   1       5.603  -3.655  15.782  1.00 20.00     0.225 C 
HETATM   13  O6  ATX X   1       5.748  -4.044  14.612  1.00 20.00    -0.273 OA
HETATM   14  N5  ATX X   1       6.478  -3.958  16.751  1.00 20.00    -0.347 N 
ATOM     15  H5  ATX X   1       6.348  -3.514  17.660  1.00  0.00     0.163 HD
HETATM   16  C5  ATX X   1       7.592  -4.867  16.603  1.00 20.00     0.180 C 
BRANCH  16  17
HETATM   17  C18 ATX X   1       7.274  -5.947  17.691  1.00 20.00     0.241 C 
HETATM   18  N6  ATX X   1       6.871  -7.136  17.332  1.00 20.00    -0.354 N 
ATOM     19  H6  ATX X   1       6.739  -7.256  16.328  1.00  0.00     0.162 HD
HETATM   20  O7  ATX X   1       7.311  -5.667  18.880  1.00 20.00    -0.271 OA
BRANCH  18  21
HETATM   21  C28 ATX X   1       6.587  -8.286  18.106  1.00 20.00     0.179 C 
BRANCH  21  22
HETATM   22  C40 ATX X   1       5.126  -8.557  18.179  1.00 20.00     0.026 A 
HETATM   23  N7  ATX X   1       4.497  -9.459  17.386  1.00 20.00    -0.368 N 
HETATM   24  C44 ATX X   1       3.164  -9.631  17.518  1.00 20.00     0.088 A 
ATOM     25  H7  ATX X   1       5.023 -10.000  16.700  1.00  0.00     0.165 HD
HETATM   26  C43 ATX X   1       2.423  -8.911  18.456  1.00 20.00     0.017 A 
HETATM   27  C42 ATX X   1       3.045  -7.980  19.287  1.00 20.00     0.003 A 
HETATM   28  C41 ATX X   1       4.413  -7.811  19.117  1.00 20.00     0.027 A 
ENDBRANCH  21  22
ENDBRANCH  18  21
ENDBRANCH  16  17
BRANCH  16  29
HETATM   29  C11 ATX X   1       8.986  -4.351  16.803  1.00 20.00     0.013 C 
HETATM   30  C15 ATX X   1       9.488  -3.108  16.016  1.00 20.00     0.002 C 
HETATM   31  C20 ATX X   1       9.099  -3.257  14.571  1.00 20.00     0.005 C 
HETATM   32  C17 ATX X   1      10.000  -5.461  16.472  1.00 20.00     0.012 C 
ENDBRANCH  16  29
HETATM   33  C9  ATX X   1       7.140   0.860  13.743  1.00 20.00     0.032 C 
BRANCH  33  34
HETATM   34  C13 ATX X   1       7.503   1.324  12.299  1.00 20.00    -0.013 C 
HETATM   35  C19 ATX X   1       8.185   0.142  11.507  1.00 20.00     0.005 C 
HETATM   36  C24 ATX X   1       8.381   0.689  10.066  1.00 20.00     0.000 C 
HETATM   37  C26 ATX X   1       9.409   1.807  10.075  1.00 20.00     0.000 C 
HETATM   38  C25 ATX X   1       8.907   2.979  10.922  1.00 20.00     0.000 C 
HETATM   39  C22 ATX X   1       8.420   2.537  12.325  1.00 20.00     0.005 C 
ENDBRANCH  33  34
HETATM   40  N4  ATX X   1       4.814   0.719  13.173  1.00 20.00    -0.352 N 
HETATM   41  C39 ATX X   1       4.018   0.269  12.183  1.00 20.00     0.241 C 
HETATM   42  O5  ATX X   1       4.203  -0.810  11.651  1.00 20.00    -0.271 OA
ATOM     43  H4  ATX X   1       4.641   1.668  13.505  1.00  0.00     0.163 HD
HETATM   44  C3  ATX X   1       3.077   1.346  11.644  1.00 20.00     0.182 C 
HETATM   45  N1  ATX X   1       3.855   2.201  10.790  1.00 20.00    -0.346 N 
HETATM   46  C6  ATX X   1       3.946   3.520  10.861  1.00 20.00     0.242 C 
HETATM   47  O1  ATX X   1       3.224   4.213  11.565  1.00 20.00    -0.271 OA
ATOM     48  H1  ATX X   1       4.393   1.745  10.053  1.00  0.00     0.163 HD
BRANCH  46  49
HETATM   49  C1  ATX X   1       4.856   4.282   9.931  1.00 20.00     0.278 C 
BRANCH  49  50
HETATM   50  O4  ATX X   1       5.331   3.476   8.904  1.00 20.00    -0.341 OA
BRANCH  50  51
HETATM   51  C29 ATX X   1       6.308   3.824   8.036  1.00 20.00     0.080 A 
HETATM   52  C30 ATX X   1       6.824   2.882   7.117  1.00 20.00     0.007 A 
HETATM   53  C38 ATX X   1       6.398   1.548   7.074  1.00 20.00     0.015 A 
HETATM   54  C34 ATX X   1       7.885   3.277   6.208  1.00 20.00    -0.023 A 
HETATM   55  C37 ATX X   1       6.949   0.682   6.190  1.00 20.00     0.001 A 
HETATM   56  C36 ATX X   1       7.986   1.072   5.322  1.00 20.00     0.001 A 
HETATM   57  C35 ATX X   1       8.469   2.345   5.318  1.00 20.00     0.012 A 
HETATM   58  C33 ATX X   1       8.363   4.590   6.284  1.00 20.00     0.012 A 
HETATM   59  C32 ATX X   1       7.805   5.484   7.142  1.00 20.00     0.004 A 
HETATM   60  C31 ATX X   1       6.770   5.099   8.019  1.00 20.00     0.037 A 
ENDBRANCH  50  51
ENDBRANCH  49  50
ENDBRANCH  46  49
HETATM   61  C7  ATX X   1       1.856   0.712  11.049  1.00 20.00     0.093 C 
BRANCH  61  62
HETATM   62  C12 ATX X   1       1.015   1.845  10.511  1.00 20.00     0.028 A 
HETATM   63  N2  ATX X   1       1.467   2.439   9.321  1.00 20.00    -0.354 N 
HETATM   64  C23 ATX X   1       0.638   3.428   9.002  1.00 20.00     0.180 A 
ATOM     65  H2  ATX X   1       2.292   2.159   8.791  1.00  0.00     0.166 HD
HETATM   66  N3  ATX X   1      -0.372   3.461   9.881  1.00 20.00    -0.360 N 
HETATM   67  C21 ATX X   1      -0.105   2.479  10.887  1.00 20.00     0.114 A 
ATOM     68  H3  ATX X   1      -1.185   4.075   9.841  1.00  0.00     0.166 HD
ENDBRANCH  61  62
TORSDOF 23
