REMARK  10 active torsions:
REMARK  status: ('A' for Active; 'I' for Inactive)
REMARK    1  A    between atoms: N01_1  and  C08_8 
REMARK    2  A    between atoms: N03_3  and  C16_16 
REMARK    3  A    between atoms: C04_4  and  C23_23 
REMARK    4  A    between atoms: C07_7  and  C33_33 
REMARK    5  A    between atoms: C08_8  and  C09_9 
REMARK    6  A    between atoms: C16_16  and  C17_17 
REMARK    7  A    between atoms: C23_23  and  O24_24 
REMARK    8  A    between atoms: O24_24  and  C25_25 
REMARK    9  A    between atoms: C33_33  and  O34_34 
REMARK   10  A    between atoms: O34_34  and  C35_35 
ROOT
HETATM    1  N01 AH1 A 500      11.741  23.343   5.989  1.00 19.81    -0.295 N 
HETATM    2  C02 AH1 A 500      12.265  22.028   6.051  1.00 20.51     0.324 C 
HETATM    3  N03 AH1 A 500      13.507  21.739   5.638  1.00 19.11    -0.295 N 
HETATM    4  C04 AH1 A 500      14.652  22.663   5.760  1.00 20.96     0.149 C 
HETATM    5  C05 AH1 A 500      14.574  23.829   4.674  1.00 18.24     0.207 C 
HETATM    6  C06 AH1 A 500      13.431  24.851   4.942  1.00 18.09     0.207 C 
HETATM    7  C07 AH1 A 500      11.994  24.268   4.839  1.00 19.29     0.149 C 
HETATM    8  O15 AH1 A 500      11.549  21.091   6.503  1.00 17.64    -0.247 OA
HETATM    9  O31 AH1 A 500      15.746  24.539   4.742  1.00 14.56    -0.218 OA
HETATM   10  O32 AH1 A 500      13.550  25.840   3.984  1.00 21.72    -0.218 OA
ENDROOT
BRANCH   1  11
HETATM   11  C08 AH1 A 500      10.453  23.612   6.669  1.00 19.69     0.133 C 
BRANCH  11  12
HETATM   12  C09 AH1 A 500      10.285  24.954   7.281  1.00 19.77     0.000 A 
HETATM   13  C10 AH1 A 500       9.180  25.737   6.968  1.00 19.95    -0.002 A 
HETATM   14  C11 AH1 A 500       9.039  27.011   7.522  1.00 22.27    -0.000 A 
HETATM   15  C12 AH1 A 500      10.011  27.526   8.396  1.00 18.67    -0.000 A 
HETATM   16  C13 AH1 A 500      11.100  26.732   8.696  1.00 19.27    -0.000 A 
HETATM   17  C14 AH1 A 500      11.227  25.436   8.130  1.00 17.22    -0.002 A 
ENDBRANCH  11  12
ENDBRANCH   1  11
BRANCH   7  18
HETATM   18  C33 AH1 A 500      11.832  23.452   3.515  1.00 19.18     0.174 C 
BRANCH  18  19
HETATM   19  O34 AH1 A 500      10.461  23.135   3.063  1.00 22.93    -0.329 OA
BRANCH  19  20
HETATM   20  C35 AH1 A 500       9.524  24.083   2.747  1.00 22.24     0.094 A 
HETATM   21  C36 AH1 A 500       9.909  25.327   2.231  1.00 23.26     0.024 A 
HETATM   22  C37 AH1 A 500       8.945  26.310   1.880  1.00 26.71     0.002 A 
HETATM   23  C38 AH1 A 500       7.565  26.060   2.052  1.00 26.63     0.000 A 
HETATM   24  C39 AH1 A 500       7.175  24.809   2.588  1.00 26.74     0.002 A 
HETATM   25  C40 AH1 A 500       8.171  23.826   2.927  1.00 23.99     0.024 A 
ENDBRANCH  19  20
ENDBRANCH  18  19
ENDBRANCH   7  18
BRANCH   3  26
HETATM   26  C16 AH1 A 500      13.925  20.389   5.492  1.00 18.94     0.133 C 
BRANCH  26  27
HETATM   27  C17 AH1 A 500      14.841  19.956   4.360  1.00 21.20     0.000 A 
HETATM   28  C18 AH1 A 500      16.112  19.365   4.620  1.00 19.23    -0.002 A 
HETATM   29  C19 AH1 A 500      16.890  18.931   3.539  1.00 22.81    -0.000 A 
HETATM   30  C20 AH1 A 500      16.459  19.059   2.217  1.00 19.48    -0.000 A 
HETATM   31  C21 AH1 A 500      15.222  19.650   1.938  1.00 21.62    -0.000 A 
HETATM   32  C22 AH1 A 500      14.399  20.099   3.000  1.00 19.56    -0.002 A 
ENDBRANCH  26  27
ENDBRANCH   3  26
BRANCH   4  33
HETATM   33  C23 AH1 A 500      14.603  23.293   7.116  1.00 19.82     0.174 C 
BRANCH  33  34
HETATM   34  O24 AH1 A 500      14.744  22.495   8.337  1.00 22.97    -0.329 OA
BRANCH  34  35
HETATM   35  C25 AH1 A 500      15.782  21.774   8.660  1.00 22.46     0.094 A 
HETATM   36  C26 AH1 A 500      15.625  20.603   9.466  1.00 26.14     0.024 A 
HETATM   37  C27 AH1 A 500      16.778  19.855   9.822  1.00 25.90     0.002 A 
HETATM   38  C28 AH1 A 500      18.069  20.270   9.368  1.00 25.42     0.000 A 
HETATM   39  C29 AH1 A 500      18.226  21.418   8.555  1.00 25.26     0.002 A 
HETATM   40  C30 AH1 A 500      17.084  22.167   8.209  1.00 24.88     0.024 A 
ENDBRANCH  34  35
ENDBRANCH  33  34
ENDBRANCH   4  33
TORSDOF 10
