REMARK  12 active torsions:
REMARK  status: ('A' for Active; 'I' for Inactive)
REMARK    1  A    between atoms: N1_1  and  C6_8 
REMARK    2  A    between atoms: N2_3  and  C13_16 
REMARK    3  A    between atoms: C2_4  and  C20_23 
REMARK    4  A    between atoms: C3_5  and  O3_31 
REMARK    5  A    between atoms: C4_6  and  O4_32 
REMARK    6  A    between atoms: C5_7  and  C27_33 
REMARK    7  A    between atoms: C6_8  and  C7_9 
REMARK    8  A    between atoms: C13_16  and  C14_17 
REMARK    9  A    between atoms: C20_23  and  O2_24 
REMARK   10  A    between atoms: O2_24  and  C21_25 
REMARK   11  A    between atoms: C27_33  and  O5_34 
REMARK   12  A    between atoms: O5_34  and  C28_35 
ROOT
HETATM    1  N1  ATX X   1      11.741  23.343   5.989  1.00 20.00    -0.320 N 
HETATM    2  C1  ATX X   1      12.265  22.028   6.051  1.00 20.00     0.322 C 
HETATM    3  N2  ATX X   1      13.507  21.739   5.638  1.00 20.00    -0.320 N 
HETATM    4  C2  ATX X   1      14.652  22.663   5.760  1.00 20.00     0.065 C 
HETATM    5  C3  ATX X   1      14.574  23.829   4.674  1.00 20.00     0.084 C 
HETATM    6  C4  ATX X   1      13.431  24.851   4.942  1.00 20.00     0.084 C 
HETATM    7  C5  ATX X   1      11.994  24.268   4.839  1.00 20.00     0.065 C 
HETATM    8  O1  ATX X   1      11.549  21.091   6.503  1.00 20.00    -0.247 OA
HETATM    9  H1  ATX X   1      15.572  22.099   5.606  1.00 20.00     0.080 H 
HETATM   10  H2  ATX X   1      14.393  23.355   3.709  1.00 20.00     0.090 H 
HETATM   11  H3  ATX X   1      13.546  25.199   5.968  1.00 20.00     0.090 H 
HETATM   12  H4  ATX X   1      11.287  25.097   4.853  1.00 20.00     0.080 H 
ENDROOT
BRANCH   4  13
HETATM   13  C20 ATX X   1      14.603  23.293   7.116  1.00 20.00     0.047 C 
HETATM   14  H20 ATX X   1      15.400  24.036   7.140  1.00 20.00     0.078 H 
HETATM   15  H19 ATX X   1      13.570  23.634   7.178  1.00 20.00     0.078 H 
BRANCH  13  16
HETATM   16  O2  ATX X   1      14.744  22.495   8.337  1.00 20.00    -0.349 OA
BRANCH  16  17
HETATM   17  C21 ATX X   1      15.782  21.774   8.660  1.00 20.00     0.068 A 
HETATM   18  C22 ATX X   1      15.625  20.603   9.466  1.00 20.00    -0.051 A 
HETATM   19  C23 ATX X   1      16.778  19.855   9.822  1.00 20.00    -0.080 A 
HETATM   20  H21 ATX X   1      14.636  20.290   9.802  1.00 20.00     0.087 H 
HETATM   21  C24 ATX X   1      18.069  20.270   9.368  1.00 20.00    -0.083 A 
HETATM   22  H22 ATX X   1      16.679  18.964  10.442  1.00 20.00     0.083 H 
HETATM   23  H23 ATX X   1      18.948  19.692   9.653  1.00 20.00     0.083 H 
HETATM   24  C25 ATX X   1      18.226  21.418   8.555  1.00 20.00    -0.080 A 
HETATM   25  H24 ATX X   1      19.213  21.717   8.203  1.00 20.00     0.083 H 
HETATM   26  C26 ATX X   1      17.084  22.167   8.209  1.00 20.00    -0.051 A 
HETATM   27  H25 ATX X   1      17.192  23.058   7.590  1.00 20.00     0.087 H 
ENDBRANCH  16  17
ENDBRANCH  13  16
ENDBRANCH   4  13
BRANCH   3  28
HETATM   28  C13 ATX X   1      13.925  20.389   5.492  1.00 20.00     0.024 C 
HETATM   29  H12 ATX X   1      12.992  19.883   5.243  1.00 20.00     0.071 H 
HETATM   30  H13 ATX X   1      14.434  20.123   6.418  1.00 20.00     0.071 H 
BRANCH  28  31
HETATM   31  C14 ATX X   1      14.841  19.956   4.360  1.00 20.00    -0.040 A 
HETATM   32  C19 ATX X   1      14.399  20.099   3.000  1.00 20.00    -0.075 A 
HETATM   33  C18 ATX X   1      15.222  19.650   1.938  1.00 20.00    -0.082 A 
HETATM   34  H18 ATX X   1      13.431  20.553   2.786  1.00 20.00     0.084 H 
HETATM   35  C17 ATX X   1      16.459  19.059   2.217  1.00 20.00    -0.083 A 
HETATM   36  H17 ATX X   1      14.892  19.765   0.905  1.00 20.00     0.083 H 
HETATM   37  H16 ATX X   1      17.087  18.698   1.402  1.00 20.00     0.083 H 
HETATM   38  C16 ATX X   1      16.890  18.931   3.539  1.00 20.00    -0.082 A 
HETATM   39  H15 ATX X   1      17.862  18.479   3.736  1.00 20.00     0.083 H 
HETATM   40  C15 ATX X   1      16.112  19.365   4.620  1.00 20.00    -0.075 A 
HETATM   41  H14 ATX X   1      16.472  19.253   5.643  1.00 20.00     0.084 H 
ENDBRANCH  28  31
ENDBRANCH   3  28
BRANCH   5  42
HETATM   42  O3  ATX X   1      15.746  24.539   4.742  1.00 20.00    -0.391 OA
HETATM   43  H26 ATX X   1      16.025  24.610   5.658  1.00 20.00     0.210 HD
ENDBRANCH   5  42
BRANCH   6  44
HETATM   44  O4  ATX X   1      13.550  25.840   3.984  1.00 20.00    -0.391 OA
HETATM   45  H27 ATX X   1      13.228  26.671   4.340  1.00 20.00     0.210 HD
ENDBRANCH   6  44
BRANCH   1  46
HETATM   46  C6  ATX X   1      10.453  23.612   6.669  1.00 20.00     0.024 C 
HETATM   47  H5  ATX X   1      10.421  22.913   7.504  1.00 20.00     0.071 H 
HETATM   48  H6  ATX X   1       9.658  23.483   5.934  1.00 20.00     0.071 H 
BRANCH  46  49
HETATM   49  C7  ATX X   1      10.285  24.954   7.281  1.00 20.00    -0.040 A 
HETATM   50  C8  ATX X   1       9.180  25.737   6.968  1.00 20.00    -0.075 A 
HETATM   51  H7  ATX X   1       8.420  25.355   6.287  1.00 20.00     0.084 H 
HETATM   52  C9  ATX X   1       9.039  27.011   7.522  1.00 20.00    -0.082 A 
HETATM   53  C10 ATX X   1      10.011  27.526   8.396  1.00 20.00    -0.083 A 
HETATM   54  H8  ATX X   1       8.165  27.613   7.274  1.00 20.00     0.083 H 
HETATM   55  C11 ATX X   1      11.100  26.732   8.696  1.00 20.00    -0.082 A 
HETATM   56  H9  ATX X   1       9.908  28.523   8.825  1.00 20.00     0.083 H 
HETATM   57  H10 ATX X   1      11.869  27.103   9.373  1.00 20.00     0.083 H 
HETATM   58  C12 ATX X   1      11.227  25.436   8.130  1.00 20.00    -0.075 A 
HETATM   59  H11 ATX X   1      12.091  24.821   8.381  1.00 20.00     0.084 H 
ENDBRANCH  46  49
ENDBRANCH   1  46
BRANCH   7  60
HETATM   60  C27 ATX X   1      11.832  23.452   3.515  1.00 20.00     0.047 C 
HETATM   61  H28 ATX X   1      12.279  22.482   3.735  1.00 20.00     0.078 H 
HETATM   62  H29 ATX X   1      12.313  24.022   2.720  1.00 20.00     0.078 H 
BRANCH  60  63
HETATM   63  O5  ATX X   1      10.461  23.135   3.063  1.00 20.00    -0.349 OA
BRANCH  63  64
HETATM   64  C28 ATX X   1       9.524  24.083   2.747  1.00 20.00     0.068 A 
HETATM   65  C33 ATX X   1       8.171  23.826   2.927  1.00 20.00    -0.051 A 
HETATM   66  H34 ATX X   1       7.858  22.864   3.332  1.00 20.00     0.087 H 
HETATM   67  C32 ATX X   1       7.175  24.809   2.588  1.00 20.00    -0.080 A 
HETATM   68  H33 ATX X   1       6.119  24.590   2.744  1.00 20.00     0.083 H 
HETATM   69  C31 ATX X   1       7.565  26.060   2.052  1.00 20.00    -0.083 A 
HETATM   70  C30 ATX X   1       8.945  26.310   1.880  1.00 20.00    -0.080 A 
HETATM   71  H32 ATX X   1       6.822  26.809   1.780  1.00 20.00     0.083 H 
HETATM   72  C29 ATX X   1       9.909  25.327   2.231  1.00 20.00    -0.051 A 
HETATM   73  H31 ATX X   1       9.273  27.267   1.474  1.00 20.00     0.083 H 
HETATM   74  H30 ATX X   1      10.968  25.545   2.096  1.00 20.00     0.087 H 
ENDBRANCH  63  64
ENDBRANCH  60  63
ENDBRANCH   7  60
TORSDOF 12
